54
Lattice="9.959999999999999 0.0 0.0 0.0 9.959999999999999 0.0 0.0 0.0 19.96" Properties=species:S:1:pos:R:3:forces:R:3 config_type=bcc_surf n_minim_iter=0 pbc="T T T"
Ti      -0.00000000      -0.00000000       0.15107088      -0.00000000      -0.00000000       0.00267344
Ti       1.66000000       1.66000000       1.69084694      -0.00000000      -0.00000000       0.00405427
Ti      -0.00000000       0.00000000       3.38008369       0.00000000      -0.00000000      -0.00560600
Ti       1.66000000       1.66000000       4.91991631       0.00000000      -0.00000000       0.00560600
Ti      -0.00000000      -0.00000000       6.60915306       0.00000000      -0.00000000      -0.00405427
Ti       1.66000000       1.66000000       8.14892912      -0.00000000      -0.00000000      -0.00267344
Ti      -0.00000000       3.32000000       0.15107088      -0.00000000       0.00000000       0.00267344
Ti       1.66000000       4.98000000       1.69084694       0.00000000      -0.00000000       0.00405427
Ti      -0.00000000       3.32000000       3.38008369       0.00000000       0.00000000      -0.00560600
Ti       1.66000000       4.98000000       4.91991631      -0.00000000       0.00000000       0.00560600
Ti      -0.00000000       3.32000000       6.60915306       0.00000000       0.00000000      -0.00405427
Ti       1.66000000       4.98000000       8.14892912      -0.00000000       0.00000000      -0.00267344
Ti       0.00000000       6.64000000       0.15107088       0.00000000       0.00000000       0.00267344
Ti       1.66000000       8.30000000       1.69084694       0.00000000       0.00000000       0.00405427
Ti       0.00000000       6.64000000       3.38008369      -0.00000000      -0.00000000      -0.00560600
Ti       1.66000000       8.30000000       4.91991631       0.00000000       0.00000000       0.00560600
Ti      -0.00000000       6.64000000       6.60915306       0.00000000       0.00000000      -0.00405427
Ti       1.66000000       8.30000000       8.14892912       0.00000000       0.00000000      -0.00267344
Ti       3.32000000       0.00000000       0.15107088       0.00000000       0.00000000       0.00267344
Ti       4.98000000       1.66000000       1.69084694       0.00000000      -0.00000000       0.00405427
Ti       3.32000000      -0.00000000       3.38008369       0.00000000       0.00000000      -0.00560600
Ti       4.98000000       1.66000000       4.91991631      -0.00000000       0.00000000       0.00560600
Ti       3.32000000      -0.00000000       6.60915306       0.00000000       0.00000000      -0.00405427
Ti       4.98000000       1.66000000       8.14892912       0.00000000       0.00000000      -0.00267344
Ti       3.32000000       3.32000000       0.15107088      -0.00000000      -0.00000000       0.00267344
Ti       4.98000000       4.98000000       1.69084694      -0.00000000      -0.00000000       0.00405427
Ti       3.32000000       3.32000000       3.38008369       0.00000000      -0.00000000      -0.00560600
Ti       4.98000000       4.98000000       4.91991631       0.00000000      -0.00000000       0.00560600
Ti       3.32000000       3.32000000       6.60915306      -0.00000000       0.00000000      -0.00405427
Ti       4.98000000       4.98000000       8.14892912       0.00000000      -0.00000000      -0.00267344
Ti       3.32000000       6.64000000       0.15107088       0.00000000      -0.00000000       0.00267344
Ti       4.98000000       8.30000000       1.69084694      -0.00000000       0.00000000       0.00405427
Ti       3.32000000       6.64000000       3.38008369      -0.00000000      -0.00000000      -0.00560600
Ti       4.98000000       8.30000000       4.91991631      -0.00000000       0.00000000       0.00560600
Ti       3.32000000       6.64000000       6.60915306       0.00000000      -0.00000000      -0.00405427
Ti       4.98000000       8.30000000       8.14892912       0.00000000       0.00000000      -0.00267344
Ti       6.64000000      -0.00000000       0.15107088       0.00000000      -0.00000000       0.00267344
Ti       8.30000000       1.66000000       1.69084694      -0.00000000      -0.00000000       0.00405427
Ti       6.64000000      -0.00000000       3.38008369       0.00000000       0.00000000      -0.00560600
Ti       8.30000000       1.66000000       4.91991631      -0.00000000      -0.00000000       0.00560600
Ti       6.64000000       0.00000000       6.60915306      -0.00000000       0.00000000      -0.00405427
Ti       8.30000000       1.66000000       8.14892912       0.00000000      -0.00000000      -0.00267344
Ti       6.64000000       3.32000000       0.15107088       0.00000000       0.00000000       0.00267344
Ti       8.30000000       4.98000000       1.69084694       0.00000000       0.00000000       0.00405427
Ti       6.64000000       3.32000000       3.38008369      -0.00000000      -0.00000000      -0.00560600
Ti       8.30000000       4.98000000       4.91991631      -0.00000000       0.00000000       0.00560600
Ti       6.64000000       3.32000000       6.60915306      -0.00000000      -0.00000000      -0.00405427
Ti       8.30000000       4.98000000       8.14892912      -0.00000000       0.00000000      -0.00267344
Ti       6.64000000       6.64000000       0.15107088      -0.00000000      -0.00000000       0.00267344
Ti       8.30000000       8.30000000       1.69084694      -0.00000000      -0.00000000       0.00405427
Ti       6.64000000       6.64000000       3.38008369       0.00000000      -0.00000000      -0.00560600
Ti       8.30000000       8.30000000       4.91991631       0.00000000      -0.00000000       0.00560600
Ti       6.64000000       6.64000000       6.60915306      -0.00000000      -0.00000000      -0.00405427
Ti       8.30000000       8.30000000       8.14892912      -0.00000000       0.00000000      -0.00267344
