54
Lattice="9.787706024992827 1.5111959773950004e-32 4.0392805617045097e-38 -1.5111959773950004e-32 9.787706024992827 7.646795577667676e-39 -3.09513434195661e-38 -3.558886819685004e-38 9.787706024992827" Properties=species:S:1:pos:R:3:momenta:R:3:masses:R:1:force:R:3:forces:R:3 energy=-314.046822422 config_type=HMD_bcc pbc="T T T"
Ti       0.09424370      -0.14424222      -0.25862767       1.82043585      -3.57255603      -6.36544499      47.86700000      -1.01610330       0.33922650       0.96011258      -1.01610330       0.33922650       0.96011258 
Ti       1.53818003       1.62200352       1.51899651      -2.74049243      -0.18798704      -2.92779818      47.86700000      -0.36955945       0.08585085       0.18870291      -0.36955945       0.08585085       0.18870291 
Ti      -0.08307896       0.20680763       3.15680192      -2.18800803       5.39862301      -2.78595120      47.86700000       0.03858965      -0.52870492       0.01514375       0.03858965      -0.52870492       0.01514375 
Ti       1.84787293       1.55999125       4.80389481       5.15024654      -1.66448884      -2.16495132      47.86700000      -1.02891643       0.73310713       0.39087600      -1.02891643       0.73310713       0.39087600 
Ti       0.10786033       0.11623272       6.69332951       2.00108243       2.19661473       3.77295969      47.86700000      -3.68787043      -3.24017388      -2.87893764      -3.68787043      -3.24017388      -2.87893764 
Ti       1.43010182       1.35876530       7.93875638      -4.48267159      -6.02550220      -4.98807933      47.86700000       3.31566575       4.15922203       3.48131042       3.31566575       4.15922203       3.48131042 
Ti      -0.37178825       3.43634615      -0.21737637      -8.92353062       4.57872427      -5.93164414      47.86700000       1.73433761      -0.37581772      -0.59561540       1.73433761      -0.37581772      -0.59561540 
Ti       1.94210389       4.85462699       1.42112235       7.23507483      -0.93005347      -5.50734967      47.86700000      -1.80461779       0.16559705      -0.10903289      -1.80461779       0.16559705      -0.10903289 
Ti      -0.12672661       3.59106776       3.43596964      -3.11839190       7.74999850       4.38608202      47.86700000       0.63529778      -1.90580076      -0.82260943       0.63529778      -1.90580076      -0.82260943 
Ti       1.80991423       4.78771743       4.60588099       4.93725398      -2.72807398      -6.63443384      47.86700000      -0.26320254       0.59431474       2.54912433      -0.26320254       0.59431474       2.54912433 
Ti       0.00270874       3.32211296       6.60845739       0.58257232       1.62845731       1.70904784      47.86700000       0.95929838       0.17662804      -0.77193852       0.95929838       0.17662804      -0.77193852 
Ti       1.68063230       5.18009969       8.14317636       1.46416025       6.90956513      -0.49336256      47.86700000       0.04712329      -1.42149703       0.01591954       0.04712329      -1.42149703       0.01591954 
Ti      -0.07599386       6.58043828       0.00285023      -1.81954987       1.03731940       0.17557727      47.86700000       0.35017041      -0.60483722       0.12877927       0.35017041      -0.60483722       0.12877927 
Ti       1.54033448       8.32907657       1.62324270      -2.15402937       4.45841943      -0.00183740      47.86700000       0.53927534      -0.10848199       0.36184147       0.53927534      -0.10848199       0.36184147 
Ti       0.23670019       6.28914053       3.27116200       6.13917595      -5.71776857       0.31472800      47.86700000      -0.49498557       1.12354745       0.05872075      -0.49498557       1.12354745       0.05872075 
Ti       1.53691330       8.48487737       5.16754406      -2.37970197       8.49075979       6.29465412      47.86700000      -0.20022037      -0.69068542      -2.16689280      -0.20022037      -0.69068542      -2.16689280 
Ti       0.10321889       6.67492425       6.43842265       2.57735993       3.57758873      -2.34235860      47.86700000      -0.46659632      -0.70697352      -0.29258179      -0.46659632      -0.70697352      -0.29258179 
Ti       1.45039589       8.19015737       8.27410213      -4.79538704       0.50298054       2.89190964      47.86700000       0.30545124      -0.65826093      -0.05361510       0.30545124      -0.65826093      -0.05361510 
Ti       3.15373657      -0.24644448      -0.29930321      -2.86819429      -6.21420225      -7.06013851      47.86700000       0.48715279       0.36880789       1.78829153       0.48715279       0.36880789       1.78829153 
Ti       4.89045944       1.76766384       1.64082287       0.02314589       3.01871001       0.56865781      47.86700000       0.15053786      -1.30662395       0.19585031       0.15053786      -1.30662395       0.19585031 
Ti       3.38235671       0.17075792       3.30427647       2.94374681       4.09774891       0.74402173      47.86700000      -0.45930157      -0.95056859      -0.75138122      -0.45930157      -0.95056859      -0.75138122 
Ti       4.95265392       1.61581252       4.82168809       1.30488670      -0.53533761      -1.98875770      47.86700000      -0.53185297      -0.08802544      -0.24501201      -0.53185297      -0.08802544      -0.24501201 
Ti       2.94792363      -0.17953267       6.56277588      -7.48129867      -4.55999769       0.69212309      47.86700000       1.94166622       0.56195859      -0.44331489       1.94166622       0.56195859      -0.44331489 
Ti       4.76149379       1.55611516       8.35497267      -3.15462428      -2.29364886       5.35744782      47.86700000       0.53519791      -0.34922445       0.12674674       0.53519791      -0.34922445       0.12674674 
Ti       3.22233122       3.03646694       0.35116799      -1.17117415      -5.71134257       8.38124750      47.86700000      -0.01494779       0.63714906      -1.46814092      -0.01494779       0.63714906      -1.46814092 
Ti       4.84084872       5.24637808       1.67958411      -1.14569505       8.67739572       1.77119546      47.86700000       0.53626962      -1.52131514       0.65849214       0.53626962      -1.52131514       0.65849214 
Ti       3.14621873       3.46823366       3.33159061      -2.58470928       5.01054346       1.43808358      47.86700000       1.20496093      -1.49565937      -1.13307161       1.20496093      -1.49565937      -1.13307161 
Ti       4.86145441       4.87893823       4.87659342      -0.53607583      -0.12483674      -0.33109392      47.86700000       0.88128923       0.46735370       0.70099655       0.88128923       0.46735370       0.70099655 
Ti       3.52036811       3.11399905       6.56540275       6.34939579      -3.82828047       1.22300422      47.86700000      -0.85616900       0.39148036       0.29675051      -0.85616900       0.39148036       0.29675051 
Ti       4.89295444       4.92911730       8.11850851       0.04631539       0.93218461      -0.96717418      47.86700000       0.22751361      -0.28734735       0.16494854       0.22751361      -0.28734735       0.16494854 
Ti       3.22799606       6.40371044       0.06619768      -0.75116940      -2.53385513       1.35699680      47.86700000       0.05975371       1.29509122      -0.73931533       0.05975371       1.29509122      -0.73931533 
Ti       4.89368759       7.86877042       1.66780607      -0.04836069      -6.72799879       0.75785943      47.86700000      -0.04112133       2.02072449      -0.56631144      -0.04112133       2.02072449      -0.56631144 
Ti       3.30026023       6.54312828       3.25600382       0.23219880       0.45067631      -0.22225786      47.86700000      -1.28312520       0.48502756      -0.25927523      -1.28312520       0.48502756      -0.25927523 
Ti       4.68710839       7.86542194       4.88039253      -5.56914047      -6.85737567      -0.18278129      47.86700000       0.13395635       1.29270533       0.41994942       0.13395635       1.29270533       0.41994942 
Ti       3.32086506       6.64077483       6.40870121       1.43527429       2.90111182      -2.99635132      47.86700000      -0.29258486      -0.51878559       0.20146248      -0.29258486      -0.51878559       0.20146248 
Ti       4.92588060       8.28158852       7.96260916       1.21320309       3.11733416      -4.47872821      47.86700000       0.53786833      -0.31690530       1.47599862       0.53786833      -0.31690530       1.47599862 
Ti       6.84173059       0.01161827       0.25920099       7.79671037       0.43839773       6.48660628      47.86700000      -1.39696887       0.45144578      -1.21773014      -1.39696887       0.45144578      -1.21773014 
Ti       8.19421102       1.83553451       1.46182693       1.30683732       5.33140628      -4.00545692      47.86700000       0.51755532      -0.11405948       0.92292449       0.51755532      -0.11405948       0.92292449 
Ti       6.66748979      -0.14128950       3.26091145       3.35031409      -3.31130716      -0.29710607      47.86700000      -0.87164455       0.85092145      -0.16563626      -0.87164455       0.85092145      -0.16563626 
Ti       8.14372843       1.43969304       4.96707082      -0.44804889      -4.59896605       1.92190500      47.86700000      -0.13946869       0.63092667      -0.50349201      -0.13946869       0.63092667      -0.50349201 
Ti       6.32105977      -0.04949860       6.46163172      -4.95729019      -1.44044116      -1.46916729      47.86700000       0.79285879      -0.41224991       0.33243456       0.79285879      -0.41224991       0.33243456 
Ti       8.41768220       1.71507491       7.80327155       6.43020548       1.79986402      -8.59599839      47.86700000      -1.07549394      -0.65922637       1.52045723      -1.07549394      -0.65922637       1.52045723 
Ti       6.51092861       3.27316222       0.34038982      -0.14775331       0.59235799       8.41831476      47.86700000       0.09972321       0.56711487      -1.38276787       0.09972321       0.56711487      -1.38276787 
Ti       8.46797773       4.80019505       1.66167697       7.75623552      -2.29403226       1.24705824      47.86700000      -0.82181076       0.15426917       1.06768886      -0.82181076       0.15426917       1.06768886 
Ti       6.43139757       3.33439299       3.32494974      -2.24729858       1.88674085       1.46548010      47.86700000       0.71267362       0.03316420      -0.50748035       0.71267362       0.03316420      -0.50748035 
Ti       8.05641201       4.69340838       5.01116071      -2.83683453      -4.73599878       3.12205950      47.86700000      -0.21504570       1.15660628       0.22615394      -0.21504570       1.15660628       0.22615394 
Ti       6.46465943       2.93755916       6.55361443      -2.04237179      -8.26556629       0.51796332      47.86700000      -0.57763735       1.00340468       0.15317327      -0.57763735       1.00340468       0.15317327 
Ti       8.22763527       4.96095733       7.87588619       1.40577343       2.00964282      -7.40964110      47.86700000      -0.96660401       0.63763076       0.36389339      -0.96660401       0.63763076       0.36389339 
Ti       6.67423237       6.29058378       0.34638900       3.77095504      -6.41726479       8.60957709      47.86700000      -0.45620357      -0.54574289      -1.47442927      -0.45620357      -0.54574289      -1.47442927 
Ti       7.99758007       8.00940576       1.57812684      -3.40568737      -3.73047078      -1.19693677      47.86700000       1.71119555       0.57023783       0.36316886       1.71119555       0.57023783       0.36316886 
Ti       6.71162519       7.03002359       3.38871210       4.00876596      11.42233110       2.50900015      47.86700000      -5.02007471      -6.12986207      -5.20889411      -5.02007471      -6.12986207      -5.20889411 
Ti       8.03675621       7.97138682       4.79863194      -1.54461301      -3.69661754      -1.45071601      47.86700000       6.15636333       4.37806013       5.41311729       6.15636333       4.37806013       5.41311729 
Ti       6.43770715       6.76792214       6.43099405      -2.37560499       5.94254254      -2.23523487      47.86700000       0.09325027      -0.84747111       0.69343602       0.09325027      -0.84747111       0.69343602 
Ti       8.02838146       7.94221218       8.52144403      -3.36361846      -5.45406845       8.89719116      47.86700000      -0.35286906       0.45272660      -1.47898955      -0.35286906       0.45272660      -1.47898955 
