53
Lattice="8.870728496683665 -2.8425469926068123e-15 1.1324443957325822e-38 -4.43536424834183 7.682276228202598 7.663162776850163e-25 5.474060799563254e-39 -1.4310661229599006e-24 14.346354863571726" Properties=species:S:1:pos:R:3:momenta:R:3:masses:R:1:force:R:3:forces:R:3 energy=-312.418566863 config_type=HMD_hcp_vac pbc="T T T"
Ti       0.10049712       1.42959927       2.32113117       0.70948486       1.51380384      -0.22926492      47.86700000       0.26997646       0.82525443      -0.47354439       0.26997646       0.82525443      -0.47354439 
Ti      -0.26488363       0.05657819       5.11467471      -1.51039663       1.40637458      -3.03578577      47.86700000       1.01440392      -0.35577077      -1.39996950       1.01440392      -0.35577077      -1.39996950 
Ti      -0.01126589       1.69032039       7.15947479      -3.16883706      -2.25738479       1.39857696      47.86700000      -0.25369865       0.73065417      -0.61137351      -0.25369865       0.73065417      -0.61137351 
Ti       0.01804382      -0.05026840       9.44299072       3.79759664      -2.11537974       2.15590432      47.86700000      -0.60207321      -0.66709874       0.30204791      -0.60207321      -0.66709874       0.30204791 
Ti      -0.07633846       1.46158630      11.50581673      -0.89153135       1.77920384      -0.34116761      47.86700000      -0.16032340       0.19306789       1.38179840      -0.16032340       0.19306789       1.38179840 
Ti      -1.54104664       2.69753452      -0.08319015      -1.55213489       4.35023441       3.30770163      47.86700000       0.83071781      -0.50109454       0.01774794       0.83071781      -0.50109454       0.01774794 
Ti      -1.50161940       4.20172232       2.13262460       1.24045044      -4.00294951      -0.63589763      47.86700000       0.50724240      -0.14605579       0.63410225       0.50724240      -0.14605579       0.63410225 
Ti      -1.30568853       2.40958254       4.54103905       3.42452410      -1.78856675      -0.01055379      47.86700000      -0.82759044       1.25866551       0.56302352      -0.82759044       1.25866551       0.56302352 
Ti      -1.62938936       4.17801922       7.11669401      -2.39366765       0.06873372       2.66336021      47.86700000       0.37509014       0.33177447      -0.34973561       0.37509014       0.33177447      -0.34973561 
Ti      -1.22450032       2.71121313       9.50381097      -3.74908639       1.51639690      -0.64784639      47.86700000      -0.69321941      -0.71817715      -0.48426821      -0.69321941      -0.71817715      -0.48426821 
Ti      -1.83540179       4.00969015      11.84792461       1.56413373      -1.28776488      -1.76062849      47.86700000       0.82256490       0.42977875       0.20771063       0.82256490       0.42977875       0.20771063 
Ti      -3.09028223       5.26559045      -0.10400288       3.20427482       0.72327543      -0.03441537      47.86700000      -0.16886299       0.50373622       0.00523711      -0.16886299       0.50373622       0.00523711 
Ti      -2.70554663       6.78405105       2.46774392      -0.97158101      -0.92129252      -1.13699639      47.86700000      -0.79922162       0.43967235      -0.03286861      -0.79922162       0.43967235      -0.03286861 
Ti      -3.01653734       5.56697105       4.83221630       1.97207665      -1.31889507      -0.45414753      47.86700000       0.08838983      -1.23821014       0.22834214       0.08838983      -1.23821014       0.22834214 
Ti      -2.69723684       6.99030809       7.36926042      -0.59058064      -1.69943901       1.89441417      47.86700000      -0.72282392      -0.15402609      -0.20194149      -0.72282392      -0.15402609      -0.20194149 
Ti      -2.92856241       5.06581199       9.55926083      -3.43547466      -1.82316562      -2.36092255      47.86700000      -0.07995766       0.69190975       0.14123218      -0.07995766       0.69190975       0.14123218 
Ti      -2.69614675       7.08659172      11.88563160       0.04138867       1.90094974      -1.17831641      47.86700000      -1.00758081      -1.02755660       0.47490970      -1.00758081      -1.02755660       0.47490970 
Ti       3.12920476      -0.02308266       0.10182659      -0.09987197       0.50725255       3.32807141      47.86700000       0.14500803       0.10931567      -0.18006560       0.14500803       0.10931567      -0.18006560 
Ti       3.07844467       1.71398163       2.26742771       1.52134557       2.65618196      -1.16510470      47.86700000      -0.34630385       0.11881401       0.62395681      -0.34630385       0.11881401       0.62395681 
Ti       2.80188310       0.16979764       5.01569785       0.92604966       2.96744382       3.95298530      47.86700000       0.13793669       0.93158128      -0.58412246       0.13793669       0.93158128      -0.58412246 
Ti       2.90197032       2.06368303       7.64848425      -2.65602465       2.97579550       1.27449153      47.86700000       0.60461382      -0.97605181      -1.77655899       0.60461382      -0.97605181      -1.77655899 
Ti       3.12832643      -0.11447579       9.87345651      -1.74023400       0.45809823       0.53244226      47.86700000      -0.46218603       0.54260466      -1.04589668      -0.46218603       0.54260466      -1.04589668 
Ti       3.11239311       1.63915636      12.00534118      -0.25633807       1.21866865      -2.71436475      47.86700000       0.30221987       0.45672318      -0.29166655       0.30221987       0.45672318      -0.29166655 
Ti       1.45928183       2.19465300      -0.45193555       1.76489862       0.62281987       1.58670081      47.86700000      -0.39869490       0.32620863       1.37109203      -0.39869490       0.32620863       1.37109203 
Ti       1.52368536       4.24177368       2.43327994      -0.28178288      -2.31630617       0.49803097      47.86700000      -0.17232686      -0.16668717      -0.36580187      -0.17232686      -0.16668717      -0.36580187 
Ti       1.53081373       2.72993381       4.64866415       1.69435326      -1.31265706      -0.03000447      47.86700000      -0.26033832      -0.51005719       0.65590994      -0.26033832      -0.51005719       0.65590994 
Ti       1.36506742       4.37130293       7.35005349      -1.25174068       0.49806964      -2.89341609      47.86700000      -0.27759968      -0.55945078      -0.59327974      -0.27759968      -0.55945078      -0.59327974 
Ti       1.54008289       2.36971667       9.44730880       1.24363968      -0.68864764      -3.08078458      47.86700000       0.55964781       0.73800263       0.61707086       0.55964781       0.73800263       0.61707086 
Ti       1.24513879       3.98907729      11.86040224       0.97474727       1.40807007      -0.15655948      47.86700000       0.27056603       0.24165310      -0.15186311       0.27056603       0.24165310      -0.15186311 
Ti       0.00095964       5.22800614      -0.30926115      -2.92503660      -4.00284950      -0.19668828      47.86700000      -0.69106331      -1.15627671       1.19552597      -0.69106331      -1.15627671       1.19552597 
Ti      -0.02937419       6.60559168       2.61900204      -0.73166250      -0.91158530      -2.36247085      47.86700000       0.18975531       0.24987112      -1.02042110       0.18975531       0.24987112      -1.02042110 
Ti      -0.15376982       5.26119041       4.96839148       3.08800182       0.29061639       0.79155015      47.86700000       0.19505551      -0.53085594      -0.46211794       0.19505551      -0.53085594      -0.46211794 
Ti      -0.14760394       6.98310744       7.15040931       0.23466000      -0.33322137       1.10300251      47.86700000       0.63869872       0.22004110       0.53013765       0.63869872       0.22004110       0.53013765 
Ti       0.01228784       5.18404869       9.52648887      -4.12969781       0.46380270       2.78767608      47.86700000      -0.51972521       0.25147794       0.31703157      -0.51972521       0.25147794       0.31703157 
Ti       0.00756322       6.74875331      12.04612131      -1.01190639       2.93073388       0.47437623      47.86700000       0.36491461      -0.48892898      -0.19932878       0.36491461      -0.48892898      -0.19932878 
Ti       6.00519603      -0.19798239       0.13712920       1.99305384       1.69647717       1.91268414      47.86700000       0.24438057       0.69264522      -0.05567007       0.24438057       0.69264522      -0.05567007 
Ti       5.94395973       1.55719800       2.36202838      -2.69234071       0.42081034       1.99826142      47.86700000       0.09649473       0.61509080      -0.16109910       0.09649473       0.61509080      -0.16109910 
Ti       5.66292457      -0.00401346       4.56252964      -0.23950043      -0.38322949      -1.68759098      47.86700000       0.47697726       0.28232935       1.36242420       0.47697726       0.28232935       1.36242420 
Ti       5.85443020       1.87530079       7.10434730       2.38953774       1.79966538       0.19597527      47.86700000       0.24562829      -0.76582175       0.00105870       0.24562829      -0.76582175       0.00105870 
Ti       5.89948961       0.06639089       9.56155454       1.35969262      -0.17922502      -0.18472034      47.86700000       0.74031087       0.27840619       0.12931765       0.74031087       0.27840619       0.12931765 
Ti       6.06040774       1.34634805      12.27557150      -2.70348844      -1.32683806       0.41220791      47.86700000      -0.46449221       0.27417687      -1.27717373      -0.46449221       0.27417687      -1.27717373 
Ti       4.57226414       2.60023161       0.03207387       0.07474556      -3.39169889      -1.89859383      47.86700000      -0.35561155       0.22885445       0.07980473      -0.35561155       0.22885445       0.07980473 
Ti       4.66466281       4.46686727       2.40310388       1.79959205       4.27545156      -0.52874922      47.86700000      -0.90343524      -0.73172041      -0.05742186      -0.90343524      -0.73172041      -0.05742186 
Ti       4.43372655       2.74060915       4.76014352       1.15196762       0.58126760      -0.86077274      47.86700000       0.28266271      -0.07597108       0.04247768       0.28266271      -0.07597108       0.04247768 
Ti       4.41882600       4.54545851       7.10943939       2.07375477      -1.34317757       0.77461353      47.86700000       0.06517942      -0.41533662       0.58524215       0.06517942      -0.41533662       0.58524215 
Ti       4.77852629       2.65097069       9.59411486      -2.93094763      -2.32634218       0.19545594      47.86700000      -0.68296370       0.14073283       0.81643267      -0.68296370       0.14073283       0.81643267 
Ti       4.29493881       4.26876115      12.02408500      -0.84226123       1.13934252       0.19472899      47.86700000      -0.13797416       0.04433639      -0.60299829      -0.13797416       0.04433639      -0.60299829 
Ti       2.76872851       4.92164518       0.02417318       3.16345006      -3.23079915       0.54096009      47.86700000       0.48520449      -0.61886601       0.00699779       0.48520449      -0.61886601       0.00699779 
Ti       3.02643718       6.82059741       2.34092679      -1.16932839       1.29024516      -1.52863159      47.86700000       0.57544210      -0.67889420       0.60018736       0.57544210      -0.67889420       0.60018736 
Ti       2.86654901       5.28829149       5.04100004       1.14126843      -3.03360134      -1.37362425      47.86700000      -0.49139882      -0.33225476      -1.58735817      -0.49139882      -0.33225476      -1.58735817 
Ti       2.79737785       6.75913646       7.07175059       0.56189320       0.80993889      -2.65798306      47.86700000      -0.48852751       0.88337029       1.02886199      -0.48852751       0.88337029       1.02886199 
Ti       2.80037832       5.26915344       9.56807604       0.25919371       0.25626655       2.23195089      47.86700000       0.97499879      -1.17834074       0.06006006       0.97499879      -1.17834074       0.06006006 
Ti       2.88728328       6.48854815      12.00667630       0.55567729      -0.53097426      -1.06012068      47.86700000       0.46391239       0.96275472      -0.01319620       0.46391239       0.96275472      -0.01319620 
