54
Lattice="8.870728496683665 -2.8425469926068123e-15 1.1324443957325822e-38 -4.43536424834183 7.682276228202598 7.663162776850163e-25 5.474060799563254e-39 -1.4310661229599006e-24 14.346354863571726" Properties=species:S:1:pos:R:3:momenta:R:3:masses:R:1:force:R:3:forces:R:3 energy=-316.149767957 config_type=HMD_hcp pbc="T T T"
Ti      -0.23395513       0.22091482      -0.23211969      -5.62641122       5.55526252      -5.64295755      47.86700000       1.00238535      -0.63206173       0.82291074       1.00238535      -0.63206173       0.82291074 
Ti      -0.20670942       1.86078477       2.40765407      -5.30215129       3.72248594       0.50179878      47.86700000       0.53846385      -0.67944725       0.23416322       0.53846385      -0.67944725       0.23416322 
Ti       0.14688121      -0.14161304       4.76664581       3.51052448      -3.51629024      -0.47363280      47.86700000      -0.57710429       0.25667205      -0.23085123      -0.57710429       0.25667205      -0.23085123 
Ti      -0.11845401       1.85292030       7.30622878      -2.50374120       3.49263064       3.40950165      47.86700000       0.75786447      -0.36247263      -0.44461612       0.75786447      -0.36247263      -0.44461612 
Ti       0.11820315       0.12767264       9.52112374       3.16412908       2.92585124      -1.20690380      47.86700000      -0.04820052      -0.59059793       0.14880749      -0.04820052      -0.59059793       0.14880749 
Ti       0.13187202       1.98024464      11.82015970       2.84535597       6.77700415      -3.39009904      47.86700000      -0.86045351      -0.41576913       0.53108683      -0.86045351      -0.41576913       0.53108683 
Ti      -1.36779541       2.93171801      -0.00580343       2.45163924       8.97794693      -0.08434634      47.86700000      -0.80152530      -0.47427578      -0.70350958      -0.80152530      -0.47427578      -0.70350958 
Ti      -1.53535861       4.65054694       2.46444190      -1.31192588       9.25649559       2.01613073      47.86700000       0.53012852      -1.16696577       0.27591427       0.53012852      -1.16696577       0.27591427 
Ti      -1.50309031       2.46902268       4.97236582      -0.13360462      -2.17302249       4.32993136      47.86700000       0.57938198       0.13377605      -1.12448330       0.57938198       0.13377605      -1.12448330 
Ti      -1.37326578       4.24100438       7.02445823       2.69115741      -0.28757924      -3.38528301      47.86700000       0.00432131       0.50475251       1.13284179       0.00432131       0.50475251       1.13284179 
Ti      -1.71344227       2.37023771       9.62699147      -5.78631586      -5.05743484       1.57334011      47.86700000       0.72433544       0.04255128      -0.21285642       0.72433544       0.04255128      -0.21285642 
Ti      -1.51129515       4.16790331      12.31053626      -1.28941674      -2.37097061       8.45034512      47.86700000      -3.58969990      -1.48769406      -4.60478208      -3.58969990      -1.48769406      -4.60478208 
Ti      -3.00924862       5.16503415       0.27005272      -1.64328115       1.44815690       6.27883182      47.86700000      -0.43091970       0.42839572      -1.24554075      -0.43091970       0.42839572      -1.24554075 
Ti      -3.01570592       6.78150148       2.25836930      -2.02221692      -0.61533771      -3.37531330      47.86700000      -0.93915673       1.20964580       0.33788530      -0.93915673       1.20964580       0.33788530 
Ti      -3.00146166       4.82092303       4.93955634      -1.03004290      -7.00638096       3.75938322      47.86700000       0.05133207       1.80204156      -0.71620133       0.05133207       1.80204156      -0.71620133 
Ti      -2.91056211       6.92658966       7.24982052       1.29000362       2.28338819       1.81516624      47.86700000       0.04741370      -0.57585443      -0.58969838       0.04741370      -0.57585443      -0.58969838 
Ti      -2.97620441       5.06069216       9.50544591      -0.16073742      -1.07473705      -1.40943031      47.86700000       0.32510801       0.80380469       0.34744711       0.32510801       0.80380469       0.34744711 
Ti      -2.93405664       6.69938759      11.90718768       0.84848452      -3.14900095      -1.11663765      47.86700000       0.59968901       0.66387418       0.54085530       0.59968901       0.66387418       0.54085530 
Ti       3.05031133      -0.04341357       0.10779090       2.41687185      -1.19458569       2.81116645      47.86700000       0.04056485       0.05430007      -0.28569918       0.04056485       0.05430007      -0.28569918 
Ti       2.77228712       1.87508779       2.73778672      -4.83690079       3.63818772       8.49589427      47.86700000       0.07847535      -1.88524824      -1.18063320       0.07847535      -1.88524824      -1.18063320 
Ti       2.96995163      -0.13405464       4.62498732       0.20251213      -3.46199463      -3.49796510      47.86700000       0.06588280      -0.29014046       0.85277375       0.06588280      -0.29014046       0.85277375 
Ti       2.94279946       1.66449631       7.22878928      -0.12522573      -0.89780762       1.53796038      47.86700000       0.59221431       0.55972628       0.06316996       0.59221431       0.55972628       0.06316996 
Ti       3.19980929       0.15129351       9.51095586       6.02006880       3.92411080      -1.46592314      47.86700000      -0.51151114      -0.34753561      -0.04204549      -0.51151114      -0.34753561      -0.04204549 
Ti       2.67163761       1.86913511      12.17823399      -6.66349687       3.90108781       5.56281520      47.86700000       1.43896814      -0.72219151      -0.83251689       1.43896814      -0.72219151      -0.83251689 
Ti       1.46548051       2.36694585       0.00766483      -0.31936701      -4.85423116       0.47198286      47.86700000       0.45971548       0.16623802       0.53393092       0.45971548       0.16623802       0.53393092 
Ti       1.61492058       4.08734702       2.02813935       2.65853044      -4.46587787      -9.01156304      47.86700000      -1.70257948       0.92936798       1.45838389      -1.70257948       0.92936798       1.45838389 
Ti       1.71085193       2.24022865       4.89442139       5.47083986      -7.72793041       3.10749629      47.86700000      -1.28375550       1.62032972       0.23293067      -1.28375550       1.62032972       0.23293067 
Ti       1.48817193       4.50500514       7.27369970       0.45313473       5.60864255       2.30311512      47.86700000       0.19617902      -1.43333756      -0.84077474       0.19617902      -1.43333756      -0.84077474 
Ti       1.35692848       2.65509726       9.67626230      -2.69917787       2.23048456       2.63503438      47.86700000       0.93681560      -0.50887110      -0.54852214       0.93681560      -0.50887110      -0.54852214 
Ti       1.53400831       4.37369043      11.97013581       1.67992162       3.27978336      -0.00077412      47.86700000       0.53054698       0.68029046      -0.89468321       0.53054698       0.68029046      -0.89468321 
Ti      -0.16024902       4.81931908      -0.42576274      -3.65196035      -7.18672298     -10.37338498      47.86700000       3.37231700       2.49112629       5.29711156       3.37231700       2.49112629       5.29711156 
Ti      -0.16357436       6.61918770       2.66301946      -3.60270179      -4.98501052       6.35502118      47.86700000       1.08117774       0.75984708      -1.38127818       1.08117774       0.75984708      -1.38127818 
Ti      -0.04731778       5.32301078       4.76850843      -0.61794786       4.57935338      -0.49243082      47.86700000       1.23008419      -1.16148961      -0.43411700       1.23008419      -1.16148961      -0.43411700 
Ti       0.09731072       6.77419076       6.93930096       2.34480908      -0.96533410      -5.68204276      47.86700000      -0.27078028       0.73947531       0.98778360      -0.27078028       0.73947531       0.98778360 
Ti      -0.12263811       4.79624923       9.53285223      -3.44363921      -8.24093144      -0.57223490      47.86700000      -0.30507355       0.99002576       0.57193157      -0.30507355       0.99002576       0.57193157 
Ti      -0.09267819       7.03424530      11.73386985      -2.53395064       4.85419608      -5.27478472      47.86700000      -0.13905754      -0.98120147       1.14325561      -0.13905754      -0.98120147       1.14325561 
Ti       6.11629943      -0.24178435      -0.08666292       4.58232944      -5.79116259      -2.33263993      47.86700000      -1.68695405       0.79623121       0.04320273      -1.68695405       0.79623121       0.04320273 
Ti       5.87398425       1.90037288       2.27476782      -0.90912650       4.61778679      -3.10754601      47.86700000       0.09154487      -0.75996263      -0.16800175       0.09154487      -0.75996263      -0.16800175 
Ti       5.90380925       0.49476356       4.78761127       0.02265443      11.98656755      -0.13769225      47.86700000       0.63580467      -2.07026519      -0.50363598       0.63580467      -2.07026519      -0.50363598 
Ti       5.99079207       1.74350068       7.10164123       1.54253579       0.52150819      -1.52054816      47.86700000      -0.76579187      -0.53444759       0.65217309      -0.76579187      -0.53444759       0.65217309 
Ti       5.91709448      -0.62273129       9.61477635       0.36829741     -15.93972018       1.03593900      47.86700000       0.12993460       1.56855735      -0.33147642       0.12993460       1.56855735      -0.33147642 
Ti       5.76970406       1.66358983      11.71937826      -3.64209295      -1.37087392      -5.60909532      47.86700000       0.40242901      -0.61276352       1.00200150       0.40242901      -0.61276352       1.00200150 
Ti       4.39057548       2.56523489       0.38406701      -1.20863366      -0.11112141       9.31438029      47.86700000       0.09053796      -0.50401753      -1.84677218       0.09053796      -0.50401753      -1.84677218 
Ti       4.34368824       4.20274337       2.30985940      -2.21713700      -1.35691840      -1.46547811      47.86700000       0.22980022       0.52798859       1.09059690       0.22980022       0.52798859       1.09059690 
Ti       4.44542629       2.67547221       4.67720795      -0.00122389       2.82279154      -2.24238895      47.86700000      -0.26308362      -0.26115760       1.03734835      -0.26308362      -0.26115760       1.03734835 
Ti       4.63611264       4.18198365       7.19078619       4.70334804      -1.80191366       0.39932441      47.86700000      -1.06211907       0.80589155      -0.22719276      -1.06211907       0.80589155      -0.22719276 
Ti       4.56451538       2.87295036       9.52292946       2.80162825       7.33800498      -1.06269803      47.86700000      -1.22807148      -1.86727532       0.15334073      -1.22807148      -1.86727532       0.15334073 
Ti       4.51902404       4.12006181      11.99521795       1.95648843      -3.46553016       1.42279602      47.86700000      -0.36871945       0.53511646       0.53313213      -0.36871945       0.53511646       0.53313213 
Ti       2.91667470       5.18074905       0.01382671      -0.77244097       1.10907082      -0.32762924      47.86700000       1.00857576      -0.52741145      -0.98093442       1.00857576      -0.52741145      -0.98093442 
Ti       2.84771799       6.40544546       2.22302175      -2.92566931     -10.23424162      -3.92276598      47.86700000       0.00290838       1.92141733       0.91844005       0.00290838       1.92141733       0.91844005 
Ti       3.05958770       5.28736510       4.96902713       2.34782810       4.06976652       4.62773722      47.86700000      -0.78873216      -0.58472501      -0.81064165      -0.78873216      -0.58472501      -0.81064165 
Ti       2.95765323       6.88060411       7.21170579       0.39836926       1.56594823       0.97370287      47.86700000       0.50170231       0.40469576      -0.24804541       0.50170231       0.40469576      -0.24804541 
Ti       3.00007152       4.90349714       9.46594275       1.36503937      -5.25239156      -2.16833199      47.86700000       0.57344101       0.62065495       0.75320688       0.57344101       0.62065495       0.75320688 
Ti       3.30946337       6.99826425      11.85410961       8.84403626       4.06854104      -2.83627361      47.86700000      -1.22675486      -0.57961391      -0.26711616      -1.22675486      -0.57961391      -0.26711616 
