54
Lattice="9.787706024992827 1.5111959773950004e-32 4.0392805617045097e-38 -1.5111959773950004e-32 9.787706024992827 7.646795577667676e-39 -3.09513434195661e-38 -3.558886819685004e-38 9.787706024992827" Properties=species:S:1:pos:R:3:momenta:R:3:masses:R:1 pbc="T T T"
Ti      -0.14122580      -0.38265058       0.38416483      -0.35492625      -2.35963310      -0.27568309      47.86700000
Ti       1.99284141       1.32233851       0.89639023       3.00844338       3.52454843      -5.56776651      47.86700000
Ti       0.11822788      -1.34423476       3.72368600       4.49507311       3.30103723       0.46684167      47.86700000
Ti       1.12746074       2.61615440       5.95257497       3.67267387       5.89424183       2.28963832      47.86700000
Ti       0.52720768       0.46619960       5.84607502      -1.56730170       2.14625625       2.07866955      47.86700000
Ti       0.85174225       1.82347353       8.44287999       0.03884579      -1.08624817      -0.62730831      47.86700000
Ti       0.97562096       3.77750134      -0.18196523       3.46210360      -1.89199555       2.08981165      47.86700000
Ti       1.80982895       4.44399970       1.86646690       2.61509649      -7.31544986       1.68428398      47.86700000
Ti       0.70420268       2.78341235       3.12490331       6.69539049       3.20100302       0.81651244      47.86700000
Ti       2.47565257       4.25226047       4.41428461       0.55885449      -2.21216075      -8.94779666      47.86700000
Ti      -0.97053382       3.33670430       8.03504168       2.37674688      -1.36978122      -1.95187137      47.86700000
Ti       0.92075967       4.93475237       6.81977748       0.50689587      -5.67921576       2.99934990      47.86700000
Ti       0.17966049       6.63840342      -1.05052790       3.23892709       2.47568726      -1.00481096      47.86700000
Ti       1.69332763       8.69075021      -1.29961720       4.99306488       9.08476194      -3.34064710      47.86700000
Ti      -0.44876765       6.78786582       1.90409563       0.44167198      -0.11547487      -2.30628180      47.86700000
Ti       2.39217692       6.99149304       3.91432429      -0.48261256      -3.26000932      -0.95947771      47.86700000
Ti      -1.15022283       6.32271343       6.17735147       0.55883255      -3.65040640       3.18423654      47.86700000
Ti       1.02634329       7.71218771       5.97796998       0.34133133       1.41885547      -9.17699095      47.86700000
Ti       4.80515256       1.10560587       1.03918686      -4.17564908      -1.70128822      -1.77884238      47.86700000
Ti       5.85009027       1.48449934       3.42974192       2.91833158       0.54448297      -1.78905903      47.86700000
Ti       3.83143396      -0.29932975       2.89701964      12.92990513       2.37031319       2.27161234      47.86700000
Ti       3.79611903       2.13272581       5.28916292      -5.69935261       0.50556205       3.72096288      47.86700000
Ti       4.04863917       1.30775663       7.91636158       3.57312961      -0.05205748       3.28767208      47.86700000
Ti       6.02872401       2.47747799       8.92781042      -2.95408756      -0.62165634       1.64997523      47.86700000
Ti       3.82711072       3.34502013       0.11829989       5.42616149       1.12710367       3.50288963      47.86700000
Ti       5.70678152       3.77686434       1.50732740      -2.76846221      -0.60387204      -0.42721226      47.86700000
Ti       3.61818697       2.74697906       2.56256060      -2.04172566      -0.83379656       2.76353392      47.86700000
Ti       4.91079415       4.44299965       3.55059601      -1.89087794      -4.42947322       0.41299427      47.86700000
Ti       2.72779389       3.76021275       7.13306615      -3.05158578       1.33564386      -1.19364049      47.86700000
Ti       5.16831814       5.02220913       8.39988612       2.65597612      -2.68611685      -8.01950341      47.86700000
Ti       2.63494830       6.07288319      -0.40486436       0.49275732       3.88281073      -1.16879034      47.86700000
Ti       3.97754727       7.79687948       0.80662949      -2.06279296     -11.69284709      -2.42954393      47.86700000
Ti       1.73973348       8.59660871       1.56797969       2.03291992       4.66450802      -1.54595028      47.86700000
Ti       3.15263151       9.58215717       5.96335446      -2.17950405       1.49494542      -1.90490998      47.86700000
Ti       3.68613334       5.60244595       6.26102693      -2.39173308      -2.60568754       2.12412620      47.86700000
Ti       4.29126768       7.92709003       8.09762006      -1.14461378       6.51828674      -5.81216651      47.86700000
Ti       6.38481607      -0.06865775      -0.61668494      -3.42217477       1.38089382      -6.60693933      47.86700000
Ti       8.64529957       1.11412180       3.95272875      -4.49516261      -2.07838464       4.37293233      47.86700000
Ti       5.27468794      -2.43474361       4.01174096      -2.73945689       1.53575418       5.76404346      47.86700000
Ti       6.28245789       2.07166350       5.92933787      -0.32967023      -1.60440584       6.06740409      47.86700000
Ti       5.94260720      -0.20826139       6.49823879       0.07595455      -1.00820274       2.69658718      47.86700000
Ti       8.41690495       0.98613611       7.71993229       5.43335778     -12.42705059      -6.36557222      47.86700000
Ti       8.22739458       1.74198894       1.78282232      -7.99961936      10.09131296       6.34829799      47.86700000
Ti       8.74843228       4.54663752       1.73975956      -1.05598299      -1.19159607      -2.49246212      47.86700000
Ti       7.41572959       3.34703492       3.77215754      -0.26095793       2.39600277       6.23215334      47.86700000
Ti       9.84247451       5.34434262       4.16015220       4.47079558      -1.52883524       4.39399286      47.86700000
Ti       6.64604095       4.72049181       6.56340771      -4.62089839       6.47468271       5.86876224      47.86700000
Ti       7.81365458       5.66607540       8.32383490      -4.79798038       7.73584011       1.52300762      47.86700000
Ti       7.00988946       6.91441782       1.33522579      -0.17483280       0.79892800      -1.67154918      47.86700000
Ti       6.41803797       8.89644339       2.09410901      -3.43365616       4.43457195       5.95030180      47.86700000
Ti       7.10910690       5.71247362       3.83193445      -7.35688885      -1.92219862      -0.58509715      47.86700000
Ti       7.76457011       8.51627090       4.57028499      -1.11422952      -1.85636632      -2.81375408      47.86700000
Ti       6.16466335       7.10570841       6.06210999      -3.22822855      -3.92766024      -2.31229332      47.86700000
Ti       8.23090866       8.19683120       8.48165152       0.78172374      -6.62616394      -1.48467307      47.86700000
