54
Lattice="9.787706024992827 1.5111959773950004e-32 4.0392805617045097e-38 -1.5111959773950004e-32 9.787706024992827 7.646795577667676e-39 -3.09513434195661e-38 -3.558886819685004e-38 9.787706024992827" Properties=species:S:1:pos:R:3:momenta:R:3:masses:R:1:force:R:3:forces:R:3 energy=-303.776967038 config_type=HMD_bcc pbc="T T T"
Ti      -0.33004978       0.35661263       0.17233827       6.21749690       4.15632271       1.65497594      47.86700000      -3.34258158      -0.28319911      -1.83490657      -3.34258158      -0.28319911      -1.83490657 
Ti       1.19952951       1.25244720       1.47216203      -1.77390530      -1.66859611       5.35994448      47.86700000       3.26513116       0.70844912       1.32965174       3.26513116       0.70844912       1.32965174 
Ti      -0.22399385       1.90061006       3.46881373      -5.83179943       7.11598860      -0.91582119      47.86700000       0.16865129       0.30679744       0.83283719       0.16865129       0.30679744       0.83283719 
Ti       2.06665955       0.58157461       4.20657913      -0.08038298      -1.80470788       2.00221813      47.86700000       0.06424693      -0.17651019      -0.37320704       0.06424693      -0.17651019      -0.37320704 
Ti      -0.23788577       0.44479795       5.40816061      -7.46451604      -0.30787290      -3.89035996      47.86700000      -1.33695375      -1.00415520      -1.36110428      -1.33695375      -1.00415520      -1.36110428 
Ti       0.79414900       0.07440408       7.37269939       2.27534955      -1.54349976       3.56799871      47.86700000       2.36078722      -0.70081930       1.71156596       2.36078722      -0.70081930       1.71156596 
Ti      -0.32537168       3.06209899       0.92546467       2.31996666      -0.57884671       1.38477790      47.86700000      -0.50663491       0.50887864      -0.14196253      -0.50663491       0.50887864      -0.14196253 
Ti       0.13706952       5.57715301       1.63107715       2.99604866      -2.18745857       1.63805241      47.86700000      -0.64478945       0.20641309       0.41486683      -0.64478945       0.20641309       0.41486683 
Ti       1.59662480       3.90861364       3.54293857      -0.01783884      -6.74949297       1.69715050      47.86700000      -0.31416038      -1.58958120      -0.23338886      -0.31416038      -1.58958120      -0.23338886 
Ti       1.62480403       5.21667634       6.56384377       3.24010229      -1.17275536      -0.96844806      47.86700000       0.02442972      -0.33584551       0.50576555       0.02442972      -0.33584551       0.50576555 
Ti      -0.96258674       3.84977607       6.30618881      -3.61926936      -3.31536842       0.04836608      47.86700000       0.72398304      -0.68298730      -1.09547497       0.72398304      -0.68298730      -1.09547497 
Ti       2.00911591       2.25240584       6.36203640      -0.54387427       2.66289410       5.04059752      47.86700000       0.01683474       0.61537107      -1.04018642       0.01683474       0.61537107      -1.04018642 
Ti      -0.57110262       5.10477843      -1.18339835      -3.17233509      -0.71054657      -6.93401456      47.86700000       0.19731548       0.13048234      -0.03212106       0.19731548       0.13048234      -0.03212106 
Ti       0.21007584       7.77856348      -0.24882171       0.28519923       5.24463055       0.34185599      47.86700000      -1.38608864      -0.52511277      -0.15316656      -1.38608864      -0.52511277      -0.15316656 
Ti       1.08871535       8.13799464       2.39157612      -0.05257730      -5.28390918       3.20402970      47.86700000      -0.26198259       0.09949394       0.27800010      -0.26198259       0.09949394       0.27800010 
Ti       1.87517620       7.48505369       4.94085628       1.72836738      -7.18953896       0.38139485      47.86700000       1.56954956       1.41022356       0.45059636       1.56954956       1.41022356       0.45059636 
Ti      -0.36430915       7.43653711       6.62981764       4.26876151       3.12308805       6.59401116      47.86700000      -0.56069516      -0.31076778       0.02207727      -0.56069516      -0.31076778       0.02207727 
Ti       2.07390899       7.80943120       7.61499440      -8.13837610       3.47751314       2.06597475      47.86700000       1.13655254      -0.64780188      -0.16116839       1.13655254      -0.64780188      -0.16116839 
Ti       3.60543167       0.97631941      -0.24389596      -4.82407530      -0.98765036      -4.95846636      47.86700000      -0.37775965      -0.12313536      -0.98085119      -0.37775965      -0.12313536      -0.98085119 
Ti       5.65325855       0.03870098       3.32106445       2.20668668      -2.60236869      -1.74351117      47.86700000       1.88686464      -0.05933837       0.63450100       1.88686464      -0.05933837       0.63450100 
Ti       3.56764269      -0.48063281       2.64286034      -0.06464287      -0.38881893       2.08806756      47.86700000      -1.65968624      -0.46390344      -0.37392034      -1.65968624      -0.46390344      -0.37392034 
Ti       4.28372807       1.84846853       4.77510968      -4.21898371       5.94972304      -2.22874614      47.86700000       0.78410240       0.91813938       0.80881770       0.78410240       0.91813938       0.80881770 
Ti       3.64430009      -0.25950997       6.24421183      -6.42591998       7.66569844       3.30751348      47.86700000      -0.42197057       2.57672260       2.77305606      -0.42197057       2.57672260       2.77305606 
Ti       1.55613634       2.85616443       8.53079720      -0.86678072       0.20576163       3.83881540      47.86700000      -0.44994322       0.00709884       0.47356037      -0.44994322       0.00709884       0.47356037 
Ti       2.72424055       3.62998183       0.68165229      -5.08097243       1.49890852      -0.55873105      47.86700000       0.16960194       0.18415642       0.63531812       0.16960194       0.18415642       0.63531812 
Ti       4.93206417       5.30310318       0.04450917      -8.56110133       1.82555677      -9.53680099      47.86700000       0.26346926       0.45092084       0.12833482       0.26346926       0.45092084       0.12833482 
Ti       3.37861756       1.83169394       2.68477658      -2.47328077      -1.40411452      -3.99446358      47.86700000       0.73044741       0.75606527      -0.35958157       0.73044741       0.75606527      -0.35958157 
Ti       4.78619581       7.96680915       5.11005624       4.11081423      -7.19399325       0.47376070      47.86700000       0.86349198      -3.90327015      -1.93471823       0.86349198      -3.90327015      -1.93471823 
Ti       3.97716029       3.13837516       7.78575062       1.02559312       2.80321943       3.81367230      47.86700000       0.89951974       0.90512909      -0.00913915       0.89951974       0.90512909      -0.00913915 
Ti       4.33360377       5.96199888       7.29882186      -0.68815275       1.84913701       1.79835804      47.86700000      -0.06252853       0.05345919      -0.72683497      -0.06252853       0.05345919      -0.72683497 
Ti       2.77834403       8.16262788       0.30541401      -5.66105731      -1.04826302      -4.19087623      47.86700000       0.51666440      -0.17358356       0.60626918       0.51666440      -0.17358356       0.60626918 
Ti       5.53528040       7.56026044       1.78332126       5.29365392       1.11742515      -2.38342882      47.86700000       0.44956841      -1.25068339      -0.46116627       0.44956841      -1.25068339      -0.46116627 
Ti       2.75883423       5.93694922       2.42202120       3.26844761       6.11616437      -4.98544057      47.86700000       1.00473912       0.83720776      -0.58230249       1.00473912       0.83720776      -0.58230249 
Ti       7.10232919       8.92803509       5.73994446       4.08366037      -1.06006565       0.25577770      47.86700000      -0.35295995       0.04964600       0.21183282      -0.35295995       0.04964600       0.21183282 
Ti       1.78205125       5.76747365       9.20499778      -8.56026733      -6.66653807       2.52187727      47.86700000       1.69867251      -0.66820904       0.28820364       1.69867251      -0.66820904       0.28820364 
Ti       5.05367236       8.22677098       8.57398507       0.27221385       1.66933641       0.57585391      47.86700000       0.82802108       0.16690241      -0.97391864       0.82802108       0.16690241      -0.97391864 
Ti       5.66500176       0.11271686       0.34292671      -0.48227917       1.50490790      -1.17468650      47.86700000       0.85484324      -0.11253902       1.17163080       0.85484324      -0.11253902       1.17163080 
Ti       7.51313022       1.40289211       2.56000501      -2.69070639       0.72091697      -0.10929265      47.86700000      -0.74550680       1.95152685      -1.87306454      -0.74550680       1.95152685      -1.87306454 
Ti       8.40576496      -0.96074373       2.26019046       5.51968449      -1.42907974       0.71898269      47.86700000      -0.91589929      -0.90057592       0.85756496      -0.91589929      -0.90057592       0.85756496 
Ti       7.21258236       1.46353640       5.11723882      -4.59101787       1.68943153       1.90889033      47.86700000      -0.05427058       0.63044903       1.12709289      -0.05427058       0.63044903       1.12709289 
Ti       5.89935485       1.09109387       7.78947351       8.42644005      -0.59850997       1.52506221      47.86700000      -1.34295690       0.52914261      -1.24814123      -1.34295690       0.52914261      -1.24814123 
Ti       9.01239478       2.02643562       7.76821831       2.27226259       2.92627792      -4.22281181      47.86700000       0.45582560       2.24226576      -0.62956525       0.45582560       2.24226576      -0.62956525 
Ti       5.44452230       3.06983031       1.02175131       5.99639925      -4.73006129      -1.92098926      47.86700000       0.65648181      -0.40588217      -0.01711466       0.65648181      -0.40588217      -0.01711466 
Ti       7.19144910       4.95338751       0.88117280       5.70178318      -3.01572417      -1.52219110      47.86700000       0.10868887       0.30543572       1.38061349       0.10868887       0.30543572       1.38061349 
Ti       5.34325401       5.14855143       3.44382644       2.23894671      -2.71441471       6.21067805      47.86700000      -0.09962068       0.20909053      -0.14689276      -0.09962068       0.20909053      -0.14689276 
Ti       8.08228607       4.07101208       3.76862438       4.85110097       3.08243574      -3.90614355      47.86700000      -1.08593984       0.53716886      -1.09446368      -1.08593984       0.53716886      -1.09446368 
Ti       6.05449727       3.84407176       5.84335376       8.77230143       4.69633102      -0.69603163      47.86700000      -0.56183527      -0.09737906      -0.16709748      -0.56183527      -0.09737906      -0.16709748 
Ti       7.17866332       3.61065083       8.15443186       1.49535683      -7.48331205       2.32277299      47.86700000      -1.76520018       0.51120303       0.76867370      -1.76520018       0.51120303       0.76867370 
Ti       7.74933001       7.23423917      -0.65523762       1.39519020      -5.83816299      -5.17587401      47.86700000      -1.15253510       0.37015647       0.48644426      -1.15253510       0.37015647       0.48644426 
Ti      10.22437378       5.79528550       4.52580975      -3.78843875       2.78485663       0.84540835      47.86700000      -1.84070208      -0.27745017      -0.60117184      -1.84070208      -0.27745017      -0.60117184 
Ti       7.54076568       7.10632561       3.68720726      -3.12360064       1.32219660       7.95494591      47.86700000       0.41401170      -0.61145025      -0.32310048       0.41401170      -0.61145025      -0.32310048 
Ti      13.23904455       4.82654122       4.77650804       3.43182226       1.72354621      -4.65461202      47.86700000       1.22311223      -0.30310675       0.10017344       1.22311223      -0.30310675       0.10017344 
Ti       7.20070906       6.03681648       6.36271931       1.30351325       1.15731794       1.21055446      47.86700000      -0.71716755       0.49357125       0.57730982      -0.71716755       0.49357125       0.57730982 
Ti       8.14583038       9.77950657       8.08134056      -2.24419911       1.61802808      -5.70484757      47.86700000      -1.37523910      -3.06428020       0.35497338      -1.37523910      -3.06428020       0.35497338 
