53
Lattice="9.787706024992827 1.5111959773950004e-32 4.0392805617045097e-38 -1.5111959773950004e-32 9.787706024992827 7.646795577667676e-39 -3.09513434195661e-38 -3.558886819685004e-38 9.787706024992827" Properties=species:S:1:pos:R:3:momenta:R:3:masses:R:1:force:R:3:forces:R:3 energy=-306.651411652 config_type=HMD_bcc_vac pbc="T T T"
Ti       1.57471544       1.61202077       1.62866736      -1.30057136      -0.68736558      -1.04742106      47.86700000       0.02318998       0.19080566      -0.42906385       0.02318998       0.19080566      -0.42906385 
Ti       0.13143429      -0.08331391       3.13024250       1.34876061      -0.42050037      -1.80511096      47.86700000      -0.94968819       0.84952168       1.46115845      -0.94968819       0.84952168       1.46115845 
Ti       1.68908135       1.61664682       5.21676239       0.82953019       0.72947820       4.71984373      47.86700000      -0.06582474       0.62115585      -1.07063085      -0.06582474       0.62115585      -1.07063085 
Ti       0.25163967      -0.07854649       6.51748363       3.78110628      -1.12172754       0.83406484      47.86700000      -0.48357734       0.33280475       0.25002641      -0.48357734       0.33280475       0.25002641 
Ti       1.56572251       1.87302486       8.37542160      -1.59106078       2.77660193       3.43937918      47.86700000      -0.03629070      -0.89232484      -0.97732808      -0.03629070      -0.89232484      -0.97732808 
Ti      -0.10835445       3.22704402       0.27668752      -2.00627701      -0.91331198       3.87905807      47.86700000      -0.25290168       0.34112916      -1.31542917      -0.25290168       0.34112916      -1.31542917 
Ti       1.74931666       4.82681959       1.46957072       1.88209923      -0.85195634      -1.70335307      47.86700000      -0.04247897       0.20864505       1.01236592      -0.04247897       0.20864505       1.01236592 
Ti       0.16780539       3.29962073       2.87663795       2.46350416      -0.02196526      -5.02662689      47.86700000      -0.57914357      -0.47274077       2.05372935      -0.57914357      -0.47274077       2.05372935 
Ti       1.45385607       4.84692835       5.10850973      -2.47439871      -0.80972175       2.96683447      47.86700000       0.82223444      -0.14830085      -1.02055140       0.82223444      -0.14830085      -1.02055140 
Ti      -0.24235111       3.35822421       6.66794878      -4.10673063       0.82142324       2.07719831      47.86700000      -0.01565493      -0.72536283      -0.10329208      -0.01565493      -0.72536283      -0.10329208 
Ti       1.51228334       4.80394658       7.98002797      -2.05445850      -1.17424766      -2.73089839      47.86700000      -0.32713153       0.40614753       0.72752504      -0.32713153       0.40614753       0.72752504 
Ti       0.26482363       6.42029938       0.10238105       4.02977484      -0.77452053       1.22383402      47.86700000      -0.71985866       0.37905653      -0.41221753      -0.71985866       0.37905653      -0.41221753 
Ti       1.61797002       8.26865414       1.56401873      -1.29658250       2.56568003      -2.12613544      47.86700000      -0.92002014       0.31095257      -0.76155955      -0.92002014       0.31095257      -0.76155955 
Ti       0.03083351       6.57072008       3.35215858       0.21744371       0.56726076       1.08187185      47.86700000      -0.45267716      -0.46714723      -0.62686422      -0.45267716      -0.46714723      -0.62686422 
Ti       1.66360711       7.97291042       4.67293373       0.75596786      -2.98902435      -2.95641252      47.86700000       0.23500589       0.16834174       0.94023906       0.23500589       0.16834174       0.94023906 
Ti      -0.10834546       6.64970432       6.41866795      -1.48974158       1.94492647      -1.85336497      47.86700000       0.61413292      -0.24336800      -0.04437658       0.61413292      -0.24336800      -0.04437658 
Ti       1.92605146       8.12904390       8.09397483       3.79008765      -0.18472549      -0.17216680      47.86700000      -0.72474745      -0.17020735       0.34141959      -0.72474745      -0.17020735       0.34141959 
Ti       3.38897320       0.16077636      -0.01272484       0.91796777       2.81684528      -0.47411981      47.86700000      -0.23407600       0.09141977      -0.56808104      -0.23407600       0.09141977      -0.56808104 
Ti       4.88829837       1.66682365       1.59630489       0.19691592       0.92161250      -0.82605609      47.86700000       0.37492725       0.27838483      -0.28368609       0.37492725       0.27838483      -0.28368609 
Ti       3.07418595      -0.02269538       2.90513422      -3.01980932      -0.13891468      -4.75400613      47.86700000       0.43484921       0.44609848       1.68674182       0.43484921       0.44609848       1.68674182 
Ti       4.84796862       1.41408741       4.67219352      -0.94075125      -3.53257077      -2.39376969      47.86700000      -0.19153063       0.20091516       1.18868912      -0.19153063       0.20091516       1.18868912 
Ti       3.10037111      -0.12450852       6.42200957      -1.65815280      -1.91138735      -0.96670991      47.86700000       0.57911509       0.45069615       0.74220043       0.57911509       0.45069615       0.74220043 
Ti       4.79207160       1.71180176       8.49201468      -0.72592808       1.11960428       4.49608349      47.86700000       1.13516092      -0.31892053      -1.07997145       1.13516092      -0.31892053      -1.07997145 
Ti       3.24875376       3.39524527      -0.03642156      -0.64727745       1.52530244      -0.76651363      47.86700000      -0.24895096      -0.65793596      -0.16128445      -0.24895096      -0.65793596      -0.16128445 
Ti       4.60744992       5.13434242       1.25903672      -3.13105246       3.47825857      -4.74348372      47.86700000       4.07423394      -2.59387773       3.25056835       4.07423394      -2.59387773       3.25056835 
Ti       3.41191968       3.33699571       3.17794244       1.89075406       1.02683662      -1.34066726      47.86700000      -0.67195420      -0.19904480       0.26157595      -0.67195420      -0.19904480       0.26157595 
Ti       4.69990692       4.86016112       4.68544480      -2.98577499      -0.32938805      -3.30684812      47.86700000       0.25154204       0.39814858       0.28869245       0.25154204       0.39814858       0.28869245 
Ti       3.50630690       3.43262181       6.74380801       3.62039951       1.97566112       2.84117173      47.86700000      -1.14868148      -1.27913613      -1.19574355      -1.14868148      -1.27913613      -1.19574355 
Ti       4.91271404       4.72282378       7.96546230       0.67744456      -2.88169933      -2.27064823      47.86700000       1.15989173       0.25045216       1.60587703       1.15989173       0.25045216       1.60587703 
Ti       3.22810545       6.51567320       0.22612807      -1.25770177       0.40392682       2.61521304      47.86700000      -2.60222300       2.37941895      -2.87097991      -2.60222300       2.37941895      -2.87097991 
Ti       4.96182201       8.33615027       1.67435649       1.30511986       1.99287427       0.00479247      47.86700000      -1.11460404      -2.58858327      -2.56056832      -1.11460404      -2.58858327      -2.56056832 
Ti       3.22305209       6.82830037       3.00451840      -0.81543920       4.00549568      -3.84749545      47.86700000       0.03261732      -1.69839603       0.70280918       0.03261732      -1.69839603       0.70280918 
Ti       4.90819292       7.91781882       4.78941011       0.19130227      -3.79918790      -0.53387900      47.86700000      -0.13910912       0.25394135       1.11343580      -0.13910912       0.25394135       1.11343580 
Ti       3.29539045       6.31235202       6.72409161       0.37783752      -3.13433497       2.38113848      47.86700000      -0.29859495       0.51046530      -1.12443528      -0.29859495       0.51046530      -1.12443528 
Ti       4.83326738       7.95615552       8.45810821      -1.09425227      -2.70589342       3.68530162      47.86700000       0.20719626       0.70803795      -1.32783109       0.20719626       0.70803795      -1.32783109 
Ti       6.48727879      -0.15698130      -0.15667941       0.36751885      -2.60347834      -1.99991553      47.86700000       0.51591966       0.59386013       0.46657610       0.51591966       0.59386013       0.46657610 
Ti       7.91208170       1.70363664       1.79231663      -2.91674427      -0.40868113       2.24090238      47.86700000       0.70566772      -1.06713446       0.25558029       0.70566772      -1.06713446       0.25558029 
Ti       6.18277938      -0.22140696       3.06975577      -4.11285575      -3.30400471      -2.80892360      47.86700000       3.06834740       1.85736884       2.11592058       3.06834740       1.85736884       2.11592058 
Ti       8.13069211       1.47894116       5.11914651       0.37336392      -2.83631083       2.77322338      47.86700000       0.89877507      -0.18978766      -1.14294488       0.89877507      -0.18978766      -1.14294488 
Ti       6.88270213       0.04150011       6.70454988       3.95068413       0.98235543       3.10523828      47.86700000      -1.79705684       0.48972353       0.19403074      -1.79705684       0.48972353       0.19403074 
Ti       7.85822691       1.80756799       8.47553743      -3.65753188       2.13065056       5.32895562      47.86700000       0.74737440      -0.52300804      -0.67769620       0.74737440      -0.52300804      -0.67769620 
Ti       6.83653734       3.51901371       0.14556141       1.99598154       1.97887746       0.66730517      47.86700000      -6.28448642      -4.80943408      -4.42736939      -6.28448642      -4.80943408      -4.42736939 
Ti       8.06087232       4.74976891       1.41812876       0.01547643       0.32545684      -0.52710885      47.86700000       4.49222703       5.72210283       6.14081398       4.49222703       5.72210283       6.14081398 
Ti       6.56081456       2.96299291       3.41369905       0.02337552      -4.17540257       2.37989420      47.86700000      -0.59076404       1.01703491      -0.80925125      -0.59076404       1.01703491      -0.80925125 
Ti       8.03145587       4.86523278       4.75627060      -1.27552341      -0.71350366      -2.20012568      47.86700000       1.03023402      -0.41946930      -0.00873725       1.03023402      -0.41946930      -0.00873725 
Ti       6.81505506       3.42640006       6.32547972       3.79638635       2.16814364      -3.25605771      47.86700000      -1.11927680      -0.94946198       0.38664854      -1.11927680      -0.94946198       0.38664854 
Ti       8.07401553       5.18018154       8.26729156      -0.30893307       4.56128163       1.54537794      47.86700000       1.06828493      -0.28178794       0.09399973       1.06828493      -0.28178794       0.09399973 
Ti       6.73655984       6.78758442      -0.31558448       3.12887639       4.30559023      -3.71255141      47.86700000      -0.51417748      -0.82173762       1.31103538      -0.51417748      -0.82173762       1.31103538 
Ti       8.41678641       8.09971230       1.68536512       4.24029873      -0.17533199       0.01944224      47.86700000      -0.81967163       0.29740687      -0.54158374      -0.81967163       0.29740687      -0.54158374 
Ti       6.45382042       6.46391070       3.51174035      -1.19084088      -0.84820298       2.75089169      47.86700000      -0.12296674       0.41552811      -1.39629943      -0.12296674       0.41552811      -1.39629943 
Ti       7.94425821       8.28046730       4.90892454      -3.20305654       1.97682710      -0.02055239      47.86700000       0.52009714      -0.22373226      -0.17159069       0.52009714      -0.22373226      -0.17159069 
Ti       6.60984993       6.26511373       6.90072702       1.10172176      -3.41164696       4.60491652      47.86700000      -0.68615393       1.43399862      -2.28418469      -0.68615393       1.43399862      -2.28418469 
Ti       8.16075923       8.10107620       8.00224242       1.99174688      -0.24196462      -1.49101042      47.86700000       1.16324896       0.13733662       0.80189271       1.16324896       0.13733662       0.80189271 
