16
Lattice="5.9 0.0 0.0 -2.95 5.109549882328188 0.0 0.0 0.0 9.369200000000001" Properties=species:S:1:pos:R:3:momenta:R:3:masses:R:1:force:R:3:forces:R:3 energy=-89.1112744296 config_type=HMD_iter2 pbc="T T T"
Ti       0.05266911      -0.47514536      -0.28877189      -1.59809747      -0.65066090      -2.79161806      47.86700000      -0.58298037      -0.69245248       1.04835095      -0.58298037      -0.69245248       1.04835095 
Ti      -0.14255065       2.34561363       2.35371622       4.04354548       0.30805116       3.87565641      47.86700000       2.15762350      -2.79452768      -0.02485039       2.15762350      -2.79452768      -0.02485039 
Ti       2.85048496      -0.82128075      -0.09083447      -0.74729385      -4.14886530      -0.35031550      47.86700000       0.43142940       0.67812821      -0.53714013       0.43142940       0.67812821      -0.53714013 
Ti       2.89675510       1.94939773       2.51220936       0.09484408       4.45135029       3.14544620      47.86700000       0.08382400      -0.53528617      -0.59860683       0.08382400      -0.53528617      -0.59860683 
Ti      -1.65891831       1.84936485      -0.03116878      -5.96338711      -2.82312813       5.25644037      47.86700000      -3.86810922       1.17308069       4.67124819      -3.86810922       1.17308069       4.67124819 
Ti      -1.28770991       4.25740699       2.53873473      -6.26603598      -0.23914402       2.26422762      47.86700000      -1.26012633       2.86857546      -1.09458656      -1.26012633       2.86857546      -1.09458656 
Ti       1.16079125       2.06893865      -0.03198263      -0.02739972      -2.09412896     -12.76419656      47.86700000       1.84250419      -0.41478906       1.36429203       1.84250419      -0.41478906       1.36429203 
Ti       2.23393364       4.62498741       2.48578139      -0.74765571      -3.70502436      -0.31073757      47.86700000      -2.11171413       0.47751046      -0.83319278      -2.11171413       0.47751046      -0.83319278 
Ti       0.63028820       0.43747419       4.67136013      -0.76016662       7.94406219       0.98389876      47.86700000      -0.87606671       0.62327427       0.31154218      -0.87606671       0.62327427       0.31154218 
Ti      -0.27266308       1.37432121       7.70507713      -7.57170246      -7.90601351      -0.85043238      47.86700000       3.64413443       4.53421606      -5.01083654       3.64413443       4.53421606      -5.01083654 
Ti       3.24294249       0.01635244       4.50034601       0.61360443       1.71575870      -1.32088544      47.86700000      -2.89438208       6.69487225      -0.03848173      -2.89438208       6.69487225      -0.03848173 
Ti       2.12451703       1.89404362       6.97806590       2.72125179      -1.13251296       0.40569108      47.86700000       1.93081587      -0.83681374      -0.13251616       1.93081587      -0.83681374      -0.13251616 
Ti      -1.34053936       2.61300980       4.59842438       2.73054809       3.35512444       5.25328348      47.86700000      -1.04832301      -0.28730533       0.71019695      -1.04832301      -0.28730533       0.71019695 
Ti      -1.88735019       4.06215457       6.79421987      11.85066084       5.56636697       4.74704729      47.86700000       6.95091132      -1.66635327       0.89988904       6.95091132      -1.66635327       0.89988904 
Ti       1.29866461       3.21912915       4.72568110      -0.96103748      -1.69247091      -6.40980172      47.86700000       4.49594216      -7.07146115       0.07177992       4.49594216      -7.07146115       0.07177992 
Ti       1.89868513       4.64789776       6.79434157       2.58832169       1.05123532      -1.13370398      47.86700000      -8.89548302      -2.75066851      -0.80708811      -8.89548302      -2.75066851      -0.80708811 
