16
Lattice="5.9 0.0 0.0 -2.95 5.109549882328188 0.0 0.0 0.0 9.369200000000001" Properties=species:S:1:pos:R:3:momenta:R:3:masses:R:1:force:R:3:forces:R:3 energy=-87.4265476722 config_type=HMD_iter17 pbc="T T T"
Ti       0.00296583      -0.20142353       0.04395410      -4.22659743      -5.42273657       0.93521213      47.86700000      -0.55574276       0.20895876      -0.00658761      -0.55574276       0.20895876      -0.00658761 
Ti       0.38641344       2.54434622       2.56848444       3.99576983      -3.40479611       5.09094954      47.86700000      -0.04463768      -1.54662051       0.57319202      -0.04463768      -1.54662051       0.57319202 
Ti       3.48706240      -1.46454508       0.37623187       2.25576616      -4.94969405      -4.25709875      47.86700000      -1.32302315       2.01040423      -0.95096403      -1.32302315       2.01040423      -0.95096403 
Ti       3.18434239       2.41013542       2.56015267      -3.88291431       6.97995190      -1.55652427      47.86700000      -0.80134967      -0.79746223      -0.21226557      -0.80134967      -0.79746223      -0.21226557 
Ti      -1.34832956       2.56377946      -0.39752509       7.01542031       0.22181052       1.88873988      47.86700000      -0.26617344      -0.94972090       1.24142952      -0.26617344      -0.94972090       1.24142952 
Ti      -1.66401948       4.42087564       2.38840791      -3.33298919       4.97698211      -3.84649517      47.86700000       1.34905496       1.88266658      -0.53940454       1.34905496       1.88266658      -0.53940454 
Ti       2.14698120       1.73423163       0.21287639       2.54653126      -3.30031262      -1.30960917      47.86700000       0.33846887      -2.10211805      -0.57661311       0.33846887      -2.10211805      -0.57661311 
Ti       1.58686535       5.07748173       1.94414407       0.30526848       4.88287744      -4.82958667      47.86700000       0.11591751       1.00719681      -0.36578805       0.11591751       1.00719681      -0.36578805 
Ti      -0.55307958       0.63737627       4.09074628      -6.59967654       5.34140840       4.90079673      47.86700000       0.42878602      -1.74721665       0.65147799       0.42878602      -1.74721665       0.65147799 
Ti      -0.48138463       0.84964041       6.68082999      -8.22665362      -6.44127536      -1.00698898      47.86700000       1.18706718      -1.25590962       0.49524934       1.18706718      -1.25590962       0.49524934 
Ti       2.38503077      -0.01332258       4.43131437       2.95592390      -1.79533028      -0.35900215      47.86700000       1.57161177       1.37379119      -0.14781329       1.57161177       1.37379119      -0.14781329 
Ti       3.43340236       1.82085819       6.94411566       0.03254050       1.60208992       3.58516735      47.86700000      -3.68836373       1.60696852       0.76352250      -3.68836373       1.60696852       0.76352250 
Ti      -1.16400896       2.87215292       4.54063702       6.29050825       1.09794965       3.67912793      47.86700000      -1.97997523       0.74263864       1.03059047      -1.97997523       0.74263864       1.03059047 
Ti      -1.54977418       4.74933327       6.97371930       2.03806859      -0.03974615      -1.22736260      47.86700000       0.77666216      -0.61657639       0.41050644       0.77666216      -0.61657639       0.41050644 
Ti       1.29477101       2.53879984       5.44608545       0.47629990       3.77693944      -6.14065034      47.86700000       1.33464150       0.43217973      -1.85286749       1.33464150       0.43217973      -1.85286749 
Ti       0.65276163       3.52394607       7.41102559      -1.64326610      -3.52611823       4.45332454      47.86700000       1.55705570      -0.24918011      -0.51366457       1.55705570      -0.24918011      -0.51366457 
