53
Lattice="4.425 -7.66432482349 0.0 4.425 7.66432482349 0.0 0.0 0.0 14.4519894824" Properties=species:S:1:pos:R:3:momenta:R:3:masses:R:1:force:R:3:forces:R:3 energy=-311.884590033 config_type=HMD_iter2 pbc="T T T"
Ti       1.41103293       0.68186430       2.72025428      -2.15215128      -0.28879754       0.45130380      47.86700000      -0.16097454      -0.82552911      -0.56038217      -0.16097454      -0.82552911      -0.56038217 
Ti      -0.36018817      -0.03201414       5.07360715       2.81791593       1.71569017      -2.22601015      47.86700000       0.89383185      -0.45001030      -1.37225741       0.89383185      -0.45001030      -1.37225741 
Ti       1.39171697       0.55124250       7.22352365      -2.14120227       2.39185294       1.37603538      47.86700000       0.32031877       0.05601539      -0.11606078       0.32031877       0.05601539      -0.11606078 
Ti      -0.04756481      -0.10132205       9.39710900      -0.27061273      -1.31140351      -0.98994431      47.86700000       0.44189993       0.70468185       1.10951299       0.44189993       0.70468185       1.10951299 
Ti       1.61021511       0.69949574      12.02087064       0.02421160      -1.60208277       1.80684097      47.86700000       0.06397744       0.62614180       0.12007922       0.06397744       0.62614180       0.12007922 
Ti       0.90036481       2.21092023       0.08730160      -3.12660945       0.77100024       1.61021529      47.86700000      -0.20880696       0.39151236      -0.15970653      -0.20880696       0.39151236      -0.15970653 
Ti       2.61240806       3.17853705       2.36428016       1.47028337       1.57296587       0.21267228      47.86700000       0.98035779       0.71513381      -0.27148455       0.98035779       0.71513381      -0.27148455 
Ti       1.60560477       2.22604601       4.75327887       1.04790792      -2.62746048      -2.17770881      47.86700000      -1.01399930       0.68686199       0.79210604      -1.01399930       0.68686199       0.79210604 
Ti       2.79771673       3.11677235       7.26549611       2.24694921       0.04219130       0.29084332      47.86700000       0.62762567       0.23401457      -1.06503743       0.62762567       0.23401457      -1.06503743 
Ti       1.64450418       2.45654899       9.62948687       2.05819560       1.43477261      -2.28619668      47.86700000      -0.84800935      -0.32542595       0.39572547      -0.84800935      -0.32542595       0.39572547 
Ti       2.74112933       3.55776916      12.41342042       0.87732321       0.10343943      -1.29242630      47.86700000       0.14600866      -0.19862798      -0.50693325       0.14600866      -0.19862798      -0.50693325 
Ti       2.94207092       5.38692464       0.24863576       0.96344153       0.06421408      -3.35082447      47.86700000      -0.02974585       0.00600395      -1.03038814      -0.02974585       0.00600395      -1.03038814 
Ti       4.09643407       5.96074314       2.42948358      -0.32774452       0.55114830      -0.67215651      47.86700000       0.75119476       0.28356831       0.60406227       0.75119476       0.28356831       0.60406227 
Ti       2.69531886       5.00827282       4.80685772       2.30598152      -1.55855620      -0.60633700      47.86700000       0.94399374      -0.87614214      -0.09696597       0.94399374      -0.87614214      -0.09696597 
Ti       4.47093080       5.71137448       7.28300220      -2.50159587      -4.22823526      -0.61707231      47.86700000       0.54196287      -0.24361985      -1.13282189       0.54196287      -0.24361985      -1.13282189 
Ti       2.93587267       4.92412255       9.19542813      -0.60198379      -2.09131351       3.42597089      47.86700000       0.32735532       0.37936267       2.18029367       0.32735532       0.37936267       2.18029367 
Ti       4.48946537       5.96792938      11.69012445      -3.19463120      -1.99759437       1.05632787      47.86700000      -0.32776962      -0.08574294       0.62344774      -0.32776962      -0.08574294       0.62344774 
Ti       1.27881354      -2.10783638      -0.02573869       2.28454701       2.13475195       1.51548705      47.86700000       0.37276723      -0.08229786      -0.24077204       0.37276723      -0.08229786      -0.24077204 
Ti       3.01694058      -1.86750992       2.36716311       3.77883929       2.90782876      -0.03615975      47.86700000      -0.12182234       0.85483083      -0.13252132      -0.12182234       0.85483083      -0.13252132 
Ti       1.37136820      -2.44319621       4.65827320      -0.96565115       1.78462071      -0.61646235      47.86700000      -0.25409878      -0.07424612       0.77223641      -0.25409878      -0.07424612       0.77223641 
Ti       3.18648052      -1.91438861       7.22851250      -2.93230124      -2.42558995       0.26775562      47.86700000      -0.22317085       0.13941611       0.14112868      -0.22317085       0.13941611       0.14112868 
Ti       1.68771866      -2.49247634       9.49488841      -0.01395451      -0.90415211       1.25177290      47.86700000       0.07442288      -0.50307113      -0.15590036       0.07442288      -0.50307113      -0.15590036 
Ti       2.97079356      -1.41240923      12.02588469      -1.07805220      -0.17210874       6.55972290      47.86700000       0.60796290      -0.61959506       0.13942025       0.60796290      -0.61959506       0.13942025 
Ti       3.11540323       0.05230194       0.12800931       0.11846360       3.65283778      -5.00186504      47.86700000      -0.52669849       0.92947188      -0.35625532      -0.52669849       0.92947188      -0.35625532 
Ti       4.36037153       0.79620071       2.57562385       4.22713202      -2.80653013       1.31757749      47.86700000      -0.00760252       0.56781577      -0.19589598      -0.00760252       0.56781577      -0.19589598 
Ti       3.04120915      -0.11745981       4.94392176      -1.20037695       3.88027267      -3.68993394      47.86700000      -0.22015486      -0.49474573      -0.08857100      -0.22015486      -0.49474573      -0.08857100 
Ti       4.37711236       0.89789801       7.36174542       0.04684762       1.25548624       1.76369729      47.86700000       0.70196691      -1.00082718      -1.16573807       0.70196691      -1.00082718      -1.16573807 
Ti       2.94629794       0.12965549       9.49606020       0.27108179       3.01223646       1.06749559      47.86700000      -0.16216945      -1.26507435       0.39271989      -0.16216945      -1.26507435       0.39271989 
Ti       4.59408215       1.13604327      11.53433408      -3.54900154       2.57700842      -2.10205404      47.86700000      -0.24589123      -0.33404574       1.92211129      -0.24589123      -0.33404574       1.92211129 
Ti       4.33573790       2.74712479       0.09355518      -1.25537567       3.79291347       0.83219452      47.86700000       0.60177057      -0.35002939      -0.30772827       0.60177057      -0.35002939      -0.30772827 
Ti       5.82061944       3.52513924       2.51172758      -1.16908685      -0.25717897       1.71524286      47.86700000      -0.62867907      -0.27196174      -0.47310300      -0.62867907      -0.27196174      -0.47310300 
Ti       4.42874124       2.42850715       4.90947326      -1.69261734      -2.09461694       0.79370378      47.86700000      -0.19442375       0.80366312      -0.31832055      -0.19442375       0.80366312      -0.31832055 
Ti       6.06175675       3.22976101       7.03935273      -0.94640281       0.90520379       2.03811328      47.86700000      -0.35311182       0.64085715       0.68236143      -0.35311182       0.64085715       0.68236143 
Ti       4.35464119       2.49346046       9.43576931       0.03351483      -2.56471841      -0.96577284      47.86700000       1.18041016       1.32461852       0.55400530       1.18041016       1.32461852       0.55400530 
Ti       5.80075246       3.73992895      11.82234632       1.78227613       2.79595634       3.31164405      47.86700000       0.45411942      -0.81869520       0.64426281       0.45411942      -0.81869520       0.64426281 
Ti       3.03862173      -4.56942170       0.10634609      -0.98770617      -5.24999230       5.41220660      47.86700000      -0.71523786       0.13273111      -0.90192757      -0.71523786       0.13273111      -0.90192757 
Ti       4.46471513      -4.12626283       2.60692921       3.01289923      -2.21490145      -1.07039933      47.86700000       0.15905375      -0.39721827      -0.48524927       0.15905375      -0.39721827      -0.48524927 
Ti       2.83527732      -5.18887556       4.98891150       1.19768929       5.94633874       2.17404027      47.86700000       0.45035987       0.20662485      -0.88541672       0.45035987       0.20662485      -0.88541672 
Ti       4.57797231      -4.57651777       7.31453818       3.08539085      -1.55708458      -0.17393770      47.86700000      -0.38501148       0.74899635      -0.18008514      -0.38501148       0.74899635      -0.18008514 
Ti       2.89111362      -5.24992937       9.57720327      -1.66568455      -0.50535349       0.38946280      47.86700000       0.23071290       0.41589767       0.61232586       0.23071290       0.41589767       0.61232586 
Ti       4.58280202      -4.30988889      11.86772268      -1.82194492      -1.15569383      -0.37889015      47.86700000      -0.92577667       0.15957502       0.54866551      -0.92577667       0.15957502       0.54866551 
Ti       4.69833498      -2.23293162      -0.17019281      -1.47363703      -1.62586970       2.10825495      47.86700000      -0.04248525      -1.19771097       0.51687161      -0.04248525      -1.19771097       0.51687161 
Ti       6.04738896      -1.46545058       2.54437413       1.85099362      -0.91483551      -1.14829618      47.86700000      -1.01158978      -0.73342163      -0.34790137      -1.01158978      -0.73342163      -0.34790137 
Ti       4.32340824      -2.75332637       4.95330875       1.51591868       0.84871662      -2.24317112      47.86700000       0.28685099       0.32026241       0.08944400       0.28685099       0.32026241       0.08944400 
Ti       6.12149307      -1.80700043       7.31621995      -1.66134950      -2.41779388      -1.49016542      47.86700000      -1.13714007      -0.47022340      -0.92303537      -1.13714007      -0.47022340      -0.92303537 
Ti       4.68255172      -2.41976726       9.70486836      -0.56854682       0.90065554      -1.52807369      47.86700000      -0.94494240      -0.49881780      -0.26116061      -0.94494240      -0.49881780      -0.26116061 
Ti       6.11790790      -1.39635587      11.96625152       0.77544725      -2.68374835      -3.05953779      47.86700000      -0.32436734      -0.23405236       0.27890188      -0.32436734      -0.23405236       0.27890188 
Ti       5.94147889       0.26385019       0.22459302      -3.13097173       2.76292434      -0.12218523      47.86700000      -0.49283434       0.08500613      -1.04902731      -0.49283434       0.08500613      -1.04902731 
Ti       7.32450823       1.20959369       2.14739308       1.44630854       0.31868993       1.36719713      47.86700000       0.61203326      -0.81140728       1.19660343       0.61203326      -0.81140728       1.19660343 
Ti       5.87013795      -0.09378185       4.82679814       2.28486130       0.50206527       0.19955059      47.86700000      -0.51342561       0.40301837       0.53207649      -0.51342561       0.40301837       0.53207649 
Ti       7.44361719       0.59680243       7.14986451       1.38067052       0.91382446      -2.59315988      47.86700000      -0.23697552       0.62603423      -0.04951328      -0.23697552       0.62603423      -0.04951328 
Ti       6.01584875      -0.09487150       9.43494009      -1.83508634      -3.51690229      -0.99535848      47.86700000      -0.22273222       0.15501015       0.48864663      -0.22273222       0.15501015       0.48864663 
Ti       7.46194898       0.88113811      12.40663084      -0.64081301      -0.76709217      -2.88123000      47.86700000       0.70868966       0.56541316      -0.50684818       0.70868966       0.56541316      -0.50684818 
