54
Lattice="4.425 -7.66432482349 0.0 4.425 7.66432482349 0.0 0.0 0.0 24.451989482400002" Properties=species:S:1:pos:R:3:momenta:R:3:masses:R:1:force:R:3:forces:R:3 energy=-302.637484257 config_type=HMD_iter4 pbc="T T T"
Ti      -0.13551820      -0.06805299       0.45770237      -1.15153669      -1.62045572      -1.94192420      47.86700000       0.32495912       0.01065836      -0.42043554       0.32495912       0.01065836      -0.42043554 
Ti       1.76097600       0.75408417       2.30588441      -1.01833139      -5.42269668      -3.29999513      47.86700000      -1.22431094       1.20276470       1.17047514      -1.22431094       1.20276470       1.17047514 
Ti      -0.36516181      -0.16240821       4.93241925      -1.86844411       1.80629671       1.93701930      47.86700000       0.70933495      -0.37685132      -0.20640317       0.70933495      -0.37685132      -0.20640317 
Ti       1.45142445       0.91378267       7.14391349       0.55423765      -1.05099828       2.46252435      47.86700000       0.49880533      -0.33194828       0.17553084       0.49880533      -0.33194828       0.17553084 
Ti       0.12854272      -0.06438186       9.51874257      -1.06423185       0.39861269       1.46873929      47.86700000      -0.83808189       1.15818164       0.34230898      -0.83808189       1.15818164       0.34230898 
Ti       1.62892131       0.99037261      11.79740933       2.97629657      -0.36868809       0.47189617      47.86700000      -1.44738484       0.34459420       1.77460854      -1.44738484       0.34459420       1.77460854 
Ti       1.22059289       2.30274432       0.34511205       0.25579799      -1.38985613       1.37924703      47.86700000       0.30493034       1.12456394      -0.07416476       0.30493034       1.12456394      -0.07416476 
Ti       2.88916631       3.49665635       2.45754253       0.23661836      -1.33246610       0.04925162      47.86700000       0.41160352      -0.33989457       0.22726457       0.41160352      -0.33989457       0.22726457 
Ti       1.13605496       2.50602122       4.90540939       1.72572590       3.48425571       1.19105662      47.86700000       0.18735627      -1.01623320      -0.21151206       0.18735627      -1.01623320      -0.21151206 
Ti       3.11808613       3.66338424       7.34578111      -1.18878110       2.07408853       1.19806725      47.86700000      -0.56540696      -0.52715883      -0.31185446      -0.56540696      -0.52715883      -0.31185446 
Ti       1.46959031       2.73505756       9.59097360       1.08148234       3.23050148       1.09525346      47.86700000       0.16063511       0.15261947       0.21422393       0.16063511       0.15261947       0.21422393 
Ti       3.40643125       3.15405794      11.95983342       0.86430505       0.55544752      -2.09926403      47.86700000      -2.17507522       2.76112123      -0.48754265      -2.17507522       2.76112123      -0.48754265 
Ti       2.74841175       5.22713095       0.49870687      -0.60973181       1.95494839       3.53171302      47.86700000       0.18677545      -1.20537802      -0.31174914       0.18677545      -1.20537802      -0.31174914 
Ti       4.55849241       6.10962768       2.48836355       3.40826901       0.85133320       0.10988449      47.86700000      -0.03681513      -0.88247470      -0.05891570      -0.03681513      -0.88247470      -0.05891570 
Ti       2.55194045       4.83393324       4.94078876       0.25486698      -2.89102315      -3.77232001      47.86700000       0.59892632       0.26770060      -0.31878826       0.59892632       0.26770060      -0.31878826 
Ti       4.64501148       6.09653668       7.39439330       1.22613736       2.00556032       5.16628865      47.86700000      -0.01392844      -0.10218218      -1.12247373      -0.01392844      -0.10218218      -1.12247373 
Ti       3.03079689       5.25578827       9.71075849      -4.98338536      -0.61787263      -0.97005844      47.86700000       0.08565304      -0.09086701       0.62611240       0.08565304      -0.09086701       0.62611240 
Ti       4.92284989       5.92302421      11.66478618       0.37086169       2.27133897       0.69540303      47.86700000       0.36840701      -0.11177973       0.04146570       0.36840701      -0.11177973       0.04146570 
Ti       1.34502021      -2.74144112       0.03118831      -2.81727638       3.16943542       0.97167724      47.86700000      -0.42215690       0.51314716       0.64477431      -0.42215690       0.51314716       0.64477431 
Ti       2.87705060      -1.74149960       2.50826641      -2.21862248      -0.01903004      -3.52760362      47.86700000       0.68910792      -0.51762312      -0.83784832       0.68910792      -0.51762312      -0.83784832 
Ti       1.02701664      -2.81133561       4.80129463       0.38388654       4.12455021       1.72792480      47.86700000       0.09817944       0.20367441       0.39481601       0.09817944       0.20367441       0.39481601 
Ti       3.33948402      -1.45668434       7.31275340      -1.67234193       0.90995641       1.96878391      47.86700000      -0.80515700       0.08502902      -0.32656508      -0.80515700       0.08502902      -0.32656508 
Ti       1.75583359      -2.19860766       9.66585243      -1.32800364      -0.31204244      -1.33094723      47.86700000       0.02593677      -0.37012969      -0.26708523       0.02593677      -0.37012969      -0.26708523 
Ti       2.90104353      -1.81387509      11.73442513       2.67968855      -1.55007617      -3.41928023      47.86700000      -0.55270337       0.50175604       0.44898948      -0.55270337       0.50175604       0.44898948 
Ti       3.02295333      -0.05861454       0.19169176      -2.08090334       3.15789364      -0.37289643      47.86700000      -0.43647182      -0.62633375      -0.77311352      -0.43647182      -0.62633375      -0.77311352 
Ti       4.39629573       0.69375049       2.36647697       2.85129371      -2.45764211      -3.91526730      47.86700000       0.84375576       0.12126339       1.28498770       0.84375576       0.12126339       1.28498770 
Ti       2.70550855      -0.31782821       4.80835398       0.29537328      -0.20143858       2.03734981      47.86700000      -0.42291779       0.50896585       1.08783425      -0.42291779       0.50896585       1.08783425 
Ti       4.37170018       1.33195434       7.25560859       0.21363242       3.92067679      -2.62513580      47.86700000      -0.03704354      -1.28393028      -0.55725251      -0.03704354      -1.28393028      -0.55725251 
Ti       3.13916850       0.62194410      10.16415374       4.67103534       1.29270627      -2.33595448      47.86700000      -2.30009837      -2.12215763      -6.02589259      -2.30009837      -2.12215763      -6.02589259 
Ti       4.44897413       1.16894039      11.87158160       1.32897709      -0.80666527      -0.86462430      47.86700000       4.66771824      -1.56111977       4.06830850       4.66771824      -1.56111977       4.06830850 
Ti       4.40176042       2.29601480       0.49895477       0.47362058       1.42840878       2.04927421      47.86700000      -0.82132087       0.84371530      -0.56359429      -0.82132087       0.84371530      -0.56359429 
Ti       5.82628147       3.39194137       2.32283075       2.06087827       1.10838079       3.25799900      47.86700000       0.13694239       0.18706510       0.63179341       0.13694239       0.18706510       0.63179341 
Ti       4.23429974       2.22335362       5.13051696      -0.93064952      -1.21313617      -0.84087345      47.86700000      -0.89398764       0.14665779      -0.78906551      -0.89398764       0.14665779      -0.78906551 
Ti       5.94030907       3.54662933       6.91184212      -2.54546184      -1.83359539      -1.73203897      47.86700000       0.73072743       0.75209637       0.43040846       0.73072743       0.75209637       0.43040846 
Ti       4.70605780       2.94362160       9.47168326      -0.63820885      -2.25643102       0.20704665      47.86700000      -0.01508429      -0.22220745       0.48410036      -0.01508429      -0.22220745       0.48410036 
Ti       6.23734427       3.39886830      11.44257009       0.77945323       3.23391847      -2.78949919      47.86700000       0.16953089      -0.01431592       0.49871195       0.16953089      -0.01431592       0.49871195 
Ti       2.86738229      -5.14608665       0.34358648       0.12139571      -0.43199347      -4.67373418      47.86700000       0.56010561       0.73314217      -0.53756073       0.56010561       0.73314217      -0.53756073 
Ti       4.52309927      -4.05609339       2.51372259      -1.14343647      -1.56969016      -2.20960469      47.86700000      -0.16128141      -0.11388008      -0.49132890      -0.16128141      -0.11388008      -0.49132890 
Ti       2.70024740      -5.51849892       4.74870943       1.19044691      -0.27382929      -0.60148691      47.86700000      -0.46689640       0.85281980      -0.99828563      -0.46689640       0.85281980      -0.99828563 
Ti       4.44174032      -4.48700780       6.82699197       1.39033450      -2.53270405       3.57799672      47.86700000       0.54749435       1.34346689       0.27005313       0.54749435       1.34346689       0.27005313 
Ti       3.02431965      -5.19953521       9.03076553       2.44194036      -2.56815485      -3.33088257      47.86700000      -0.05840722       0.12590074       1.42976998      -0.05840722       0.12590074       1.42976998 
Ti       4.55488577      -4.43129960      11.50940871       1.09680308      -3.60008808      -1.75296325      47.86700000       0.01550119       0.19810011      -0.16689918       0.01550119       0.19810011      -0.16689918 
Ti       4.13474726      -2.01912318       0.52352223       2.73997629      -0.16631556       0.15801952      47.86700000       0.43459879      -1.28077296       0.23747929       0.43459879      -1.28077296       0.23747929 
Ti       6.20473211      -1.55671548       2.59427696      -1.32709132       0.56347159      -0.79183316      47.86700000      -0.87807790      -0.53182569       0.11055961      -0.87807790      -0.53182569       0.11055961 
Ti       3.93293579      -2.91967554       5.05724481       1.53961323      -0.11840050       4.16084228      47.86700000       0.61684378       0.36819073      -0.54521694       0.61684378       0.36819073      -0.54521694 
Ti       6.15488416      -1.86172256       7.15592110      -3.20558269      -2.83420914       2.02916582      47.86700000      -0.45105427       0.51498843       0.42711864      -0.45105427       0.51498843       0.42711864 
Ti       4.47273804      -2.52391619       9.58951729      -1.86923754      -0.41106189       2.82393456      47.86700000      -0.21193709      -0.97308170      -0.35390178      -0.21193709      -0.97308170      -0.35390178 
Ti       5.78389026      -1.85163454      11.71870225      -1.45829773       1.17240301      -0.67352448      47.86700000       0.66129560       0.34782604       0.06680054       0.66129560       0.34782604       0.06680054 
Ti       6.13701997       0.01422739       0.47234478      -1.95291849       1.11757771       4.23318590      47.86700000      -0.15631602       0.40066545      -0.94043294      -0.15631602       0.40066545      -0.94043294 
Ti       7.48245656       0.97506966       2.15371076      -0.33673226      -2.53511459       5.06046115      47.86700000       0.55500666       0.07326271       0.49240827       0.55500666       0.07326271       0.49240827 
Ti       5.72356854      -0.22737633       4.99907514      -0.58367640      -0.12582039      -2.15032920      47.86700000      -1.17560373      -0.60145975      -0.41324292      -1.17560373      -0.60145975      -0.41324292 
Ti       7.20172829       0.90314543       6.95210625      -0.89347705      -1.40886825      -3.91295896      47.86700000       0.15487679      -0.96263917       0.85636623       0.15487679      -0.96263917       0.85636623 
Ti       5.56942678      -0.26843387       9.53448121      -1.50659020       0.85579300       0.88720051      47.86700000       1.64929035       1.29649561      -0.06534893       1.64929035       1.29649561      -0.06534893 
Ti       7.37248657       1.02316005      11.49711021       1.18000243      -0.76719143       0.02779387      47.86700000       0.17322062      -0.97418845      -0.26079571       0.17322062      -0.97418845      -0.26079571 
