54
Lattice="4.425 -7.66432482349 0.0 4.425 7.66432482349 0.0 0.0 0.0 24.451989482400002" Properties=species:S:1:pos:R:3:momenta:R:3:masses:R:1:force:R:3:forces:R:3 energy=-302.24781513 config_type=HMD_iter6 pbc="T T T"
Ti       0.03145848       0.62534407       0.09996544      -4.11367364       1.13706210      -1.29585593      47.86700000      -0.19972403      -0.03678017      -0.03010302      -0.19972403      -0.03678017      -0.03010302 
Ti       1.51596748       1.26568105       2.52497409      -2.53872950      -0.32047874       1.81423221      47.86700000      -0.40952558      -0.63419033      -0.44083658      -0.40952558      -0.63419033      -0.44083658 
Ti       0.08062058       0.20014446       4.86369531      -0.33162809       1.80159719       0.06311195      47.86700000       0.02906509      -0.26009679      -0.45826131       0.02906509      -0.26009679      -0.45826131 
Ti       1.28443357       0.59319329       7.08012405       1.34169264      -2.79576453      -3.12534223      47.86700000       0.37086779      -0.19974995       0.65499511       0.37086779      -0.19974995       0.65499511 
Ti      -0.19712332      -0.70160340       9.49887229       3.33256129      -1.36928351      -0.98099300      47.86700000      -0.09530854       0.45799958      -0.20455931      -0.09530854       0.45799958      -0.20455931 
Ti       1.93854295       0.40119558      11.86037328      -0.79784045      -2.78512514      -3.82971664      47.86700000      -0.40013186       0.90995612      -0.30647384      -0.40013186       0.90995612      -0.30647384 
Ti       1.25454880       3.10276269       0.22526846      -0.68134877       0.32742871      -2.84650239      47.86700000      -0.33429621      -0.06248919       0.10596460      -0.33429621      -0.06248919       0.10596460 
Ti       2.70286196       3.65846543       2.37347080      -4.82974276       2.90840877      -0.20557901      47.86700000       0.36566192      -0.18131715       0.23037576       0.36566192      -0.18131715       0.23037576 
Ti       2.24199187       2.33400547       4.98403846      -2.36484688      -1.09699272       0.51834949      47.86700000      -1.34955988       0.26529093       0.83866754      -1.34955988       0.26529093       0.83866754 
Ti       2.97193782       3.54747069       7.89277222       0.82037639       2.83355620       0.52081358      47.86700000       0.13926464      -1.33507588      -2.59628581       0.13926464      -1.33507588      -2.59628581 
Ti       1.30843877       1.87373570       9.39909543      -3.79636897       1.04195346       1.30683357      47.86700000      -0.79589102      -0.04269224       0.81092108      -0.79589102      -0.04269224       0.81092108 
Ti       3.24310737       3.19361341      12.23550442       3.82683111      -0.10217781      -1.77580958      47.86700000       0.11726137      -0.34298369       0.22994758       0.11726137      -0.34298369       0.22994758 
Ti       3.14827988       5.48783159       0.34481036       0.39106778       1.54044885       0.87533788      47.86700000       0.79329821       0.40859664      -0.00646903       0.79329821       0.40859664      -0.00646903 
Ti       4.39319538       6.37957840       2.60063325      -0.06148334      -3.81948367       3.95989707      47.86700000       0.05214056       0.63619197      -0.19020581       0.05214056       0.63619197      -0.19020581 
Ti       3.13034982       5.03942766       5.05456843       3.10350621      -2.01288539       4.18098658      47.86700000      -0.00794805       0.17812894       0.00838698      -0.00794805       0.17812894       0.00838698 
Ti       4.25486291       5.74752680       7.02141804       3.89809385       0.52245971       0.74054835      47.86700000       0.49079938       0.39921567      -0.28508140       0.49079938       0.39921567      -0.28508140 
Ti       2.62368297       4.61036652       9.86296747      -0.81088819       1.29813683      -4.04771367      47.86700000       0.81769811       0.22045312       0.73489300       0.81769811       0.22045312       0.73489300 
Ti       5.14898594       5.85921589      11.80689360      -0.02745903      -2.35680226      -1.96350526      47.86700000      -0.71027953      -0.09353659      -0.33709482      -0.71027953      -0.09353659      -0.33709482 
Ti       1.10034358      -2.03231072       0.44647790       2.69207156       0.26037751       1.59165147      47.86700000       0.32677654       0.30820588      -0.49508187       0.32677654       0.30820588      -0.49508187 
Ti       3.25070063      -1.31195132       2.30220043      -3.10834542      -0.02566157      -0.06126306      47.86700000      -0.76886158       0.30401797       0.53029932      -0.76886158       0.30401797       0.53029932 
Ti       1.70344418      -2.44281020       4.79570070      -0.15826073      -4.56340994       2.37251007      47.86700000      -0.12069536      -0.10975752      -0.32132412      -0.12069536      -0.10975752      -0.32132412 
Ti       2.84236484      -2.20590673       6.92727703      -5.26999563      -1.97935522       1.08353197      47.86700000      -0.37972427       1.53185940       1.17869249      -0.37972427       1.53185940       1.17869249 
Ti       1.27681283      -3.22604792       9.50929696      -0.36309354      -0.66919771      -1.86172166      47.86700000      -0.41051222       0.24989052      -0.07622663      -0.41051222       0.24989052      -0.07622663 
Ti       3.63225623      -2.05448098      11.80217465       0.45077661       4.19968927      -0.01908853      47.86700000      -0.35405788       0.28563867       0.22437046      -0.35405788       0.28563867       0.22437046 
Ti       2.84591156       0.86819722       0.59754587      -0.09448401      -1.21955526      -1.55735630      47.86700000      -0.32574269      -0.72070928      -0.52623077      -0.32574269      -0.72070928      -0.52623077 
Ti       4.52355390       1.45201772       2.27074432      -0.56495850       2.20772988       2.84133158      47.86700000      -0.42017844      -0.76201186       1.10266520      -0.42017844      -0.76201186       1.10266520 
Ti       3.08063401       0.12321639       5.00238045      -0.47947760       0.05715099       0.05629635      47.86700000      -0.14272988       0.34173064      -0.93371267      -0.14272988       0.34173064      -0.93371267 
Ti       4.20127871       0.76786235       7.26198608      -2.41660124      -0.19472081      -0.51768718      47.86700000       0.26700151       0.18890782       0.51726243       0.26700151       0.18890782       0.51726243 
Ti       2.64998078      -0.67395987       9.73547334      -1.70723806       0.07587118      -1.98374914      47.86700000       0.20119820       0.30752562      -1.31811166       0.20119820       0.30752562      -1.31811166 
Ti       4.64874362       1.12359414      12.25878075       3.91719408      -0.34899934       1.90124743      47.86700000       0.38770599      -0.00144106       0.70225110       0.38770599      -0.00144106       0.70225110 
Ti       4.51955382       3.00626124       0.00600922      -1.85221701       1.18605593      -1.37487341      47.86700000      -0.21520972      -0.16676815      -0.56702765      -0.21520972      -0.16676815      -0.56702765 
Ti       5.37507011       3.96196887       2.33865627       2.77671829       1.36383381       3.40336822      47.86700000       1.96334823       0.04821802       0.22614029       1.96334823       0.04821802       0.22614029 
Ti       4.81213146       2.51830694       4.76471392      -0.27700036       3.54086904      -1.10113351      47.86700000       0.14253010      -0.13130408       0.29166432       0.14253010      -0.13130408       0.29166432 
Ti       5.90302885       3.37837434       6.96815218       3.34622280      -4.40137464       1.32322232      47.86700000      -0.56746435      -1.03645703       0.60719417      -0.56746435      -1.03645703       0.60719417 
Ti       3.95808506       2.12368547       9.89956495      -4.27667224      -2.20972890       4.10703104      47.86700000       0.84225343      -0.50611651      -0.62791134       0.84225343      -0.50611651      -0.62791134 
Ti       5.79661703       3.10108905      11.98371245      -3.24889497      -0.36720935       3.09066728      47.86700000      -0.06110861      -0.51128121       0.57847776      -0.06110861      -0.51128121       0.57847776 
Ti       2.67719779      -4.52612552      -0.07897028       3.90989335      -2.59034204      -0.97186609      47.86700000       0.10235434      -0.33052227       0.24372013       0.10235434      -0.33052227       0.24372013 
Ti       4.29731766      -3.81099789       2.37767484       0.88929419       5.12208088      -3.25597247      47.86700000      -0.44549025      -0.48001297       0.32242276      -0.44549025      -0.48001297       0.32242276 
Ti       3.09751441      -5.10005042       4.60680390      -1.39157844       3.09780740      -2.38591539      47.86700000       0.05413638       0.37176365       0.39329339       0.05413638       0.37176365       0.39329339 
Ti       4.35954778      -4.48343248       7.17531005       0.51082669       5.15247888       3.18962423      47.86700000       0.67367357      -0.48353791      -0.63747820       0.67367357      -0.48353791      -0.63747820 
Ti       2.75159342      -5.69902944       9.67033383      -2.68179335       0.14254143       0.30757285      47.86700000       0.18950128      -0.55241590      -0.05685525       0.18950128      -0.55241590      -0.05685525 
Ti       4.56762031      -4.48799925      11.50681250       0.54826258      -1.83581906       1.20088604      47.86700000       0.45573450      -0.49828247       0.27466653       0.45573450      -0.49828247       0.27466653 
Ti       4.09145019      -2.27030151       0.10260019       4.14974450      -0.74636437      -2.41155856      47.86700000       0.04629972       0.40649192       0.26042362       0.04629972       0.40649192       0.26042362 
Ti       6.07136654      -1.39893954       2.25292286       3.94619666      -0.24133508       0.38662048      47.86700000      -0.65004705      -0.12466206       0.44431316      -0.65004705      -0.12466206       0.44431316 
Ti       4.61350574      -2.31966549       5.11291039      -1.06933660      -1.14342031       0.37668843      47.86700000       0.32896592      -0.97643030      -1.97199522       0.32896592      -0.97643030      -1.97199522 
Ti       5.63611821      -1.83986177       7.45678895       0.22152728       0.20711934      -1.01823283      47.86700000       0.73714023       0.65980102      -0.35428144       0.73714023       0.65980102      -0.35428144 
Ti       4.41310368      -3.13585566       9.12759470       1.83253069       0.88119198      -0.60216129      47.86700000      -1.12629351      -0.22802135       0.87429060      -1.12629351      -0.22802135       0.87429060 
Ti       5.91886215      -1.86657918      11.80160784      -1.06309279      -0.49681281       1.73864573      47.86700000       0.24324389       0.29193606       0.67050023       0.24324389       0.29193606       0.67050023 
Ti       5.66825073       0.22660755       0.26166515       2.64059968      -1.07531399       0.54237904      47.86700000       0.15122671       0.16900653      -0.90994485       0.15122671       0.16900653      -0.90994485 
Ti       7.29292280       1.29587186       2.01048907       3.44933279       0.93894983      -1.05274128      47.86700000       0.10597635       0.27110900       0.59505328       0.10597635       0.27110900       0.59505328 
Ti       6.04077703      -0.09051845       4.70205601      -5.18358104      -3.38665804       1.09417905      47.86700000       0.27886027       0.32003218       0.14114689       0.27886027       0.32003218       0.14114689 
Ti       7.27638092       0.51372918       6.99791549       3.18030817       1.03757639      -0.19002352      47.86700000      -0.42931159       0.93804911       0.63327896      -0.42931159       0.93804911       0.63327896 
Ti       5.59535149      -0.38860810       9.91988958       0.10879577       2.76478069      -2.08315655      47.86700000      -0.22590032      -0.08599015      -0.46059773      -0.22590032      -0.08599015      -0.46059773 
Ti       7.55946472       0.67966930      11.56506535       0.27620621      -1.49288405      -2.06804580      47.86700000       0.27200822       0.42461705      -0.31412843       0.27200822       0.42461705      -0.31412843 
