16
Lattice="5.9 0.0 0.0 -2.95 5.109549882328188 0.0 0.0 0.0 9.369200000000001" Properties=species:S:1:pos:R:3:momenta:R:3:masses:R:1 pbc="T T T"
Ti       5.22147033       1.76976217       0.06203609      -0.31971142      -4.70264552       0.86320883      47.86700000
Ti       1.06120079      -2.16365011       2.18264415       5.25985767       1.50483680      -0.68196549      47.86700000
Ti       8.24242268       1.41368070       0.00562225       1.28960218       4.76304225      -1.61481042      47.86700000
Ti       3.54987656      -2.13722321       2.35143103      -2.86196491       3.41911094       1.39484669      47.86700000
Ti      -2.10809361       4.13248815      -0.26406696       0.82160309      -0.50705108      -2.65954324      47.86700000
Ti      -3.30664460       0.38195455       2.87551144      -0.20677601      -2.97353371      -9.05406545      47.86700000
Ti       0.90921645       3.96460738       0.34874635      -0.26270709       3.90744150       3.44894221      47.86700000
Ti      -0.67577087       0.46549585       1.90156340       1.86755557      -2.71757887      -3.63520071      47.86700000
Ti      -3.42863616      -6.73804752       4.71716947      -1.07778137       2.22216542       2.54343770      47.86700000
Ti       1.71359967       5.72335123       7.14867795       5.33618651      -1.44677630       0.37482754      47.86700000
Ti       3.57158457       1.49055159       4.92455205      -1.19552289      -0.19452393       2.01435578      47.86700000
Ti       0.09885922       7.66364471       7.20425422      -6.56361275      -5.07182657       9.15774026      47.86700000
Ti       1.09214339       1.24186467       4.39479121       0.36865456      -1.19461459      -2.26361551      47.86700000
Ti      -2.58268965       7.92895080       6.76784153      -6.89721420       3.89609723       7.14281535      47.86700000
Ti      -3.27903273      -1.50835236       4.55871509      -2.44701707      -2.86839153      -8.15223860      47.86700000
Ti       1.72049394      10.43458728       7.03571072       6.88884813       1.96424796       1.12126507      47.86700000
