16
Lattice="5.9 0.0 0.0 -2.95 5.109549882328188 0.0 0.0 0.0 9.369200000000001" Properties=species:S:1:pos:R:3:momenta:R:3:masses:R:1:force:R:3:forces:R:3 energy=-89.6095944843 config_type=HMD_iter2 pbc="T T T"
Ti      -0.17574625      -2.60038693       0.30661789       0.04459036      -4.63540026      -1.09604479      47.86700000      -0.65988976       0.36553515      -1.22484750      -0.65988976       0.36553515      -1.22484750 
Ti      -1.71030160       2.76842314       2.51052747      -0.58412457       2.42904718       3.45584657      47.86700000       0.58898628       0.32141395       0.05027797       0.58898628       0.32141395       0.05027797 
Ti       4.22650780      -0.07558889      -0.63076094       0.22455771      -7.71521966      -4.51514866      47.86700000       1.34260770       0.20180713       0.70995531       1.34260770       0.20180713       0.70995531 
Ti       1.83383699       1.98960960       2.52043991      -2.54150114       1.71732508       1.43265692      47.86700000      -0.49608791       1.47612610       0.02831857      -0.49608791       1.47612610       0.02831857 
Ti      -0.28097007       2.61456440      -0.08038548       4.36154164      -0.29889000      -2.57084625      47.86700000       3.87061698      -2.21092110       5.80203421       3.87061698      -2.21092110       5.80203421 
Ti      -5.37535647       5.33554169       1.62103588      -3.76277499       3.25442918       4.45729195      47.86700000       0.03528421      -2.06335713       1.48048352       0.03528421      -2.06335713       1.48048352 
Ti       1.62946906      -0.37300677       0.21986544       3.21945851       0.63835579      -3.89580666      47.86700000      -1.09648523       0.72170208      -0.42580918      -1.09648523       0.72170208      -0.42580918 
Ti      -3.08354795       5.25144436       2.36922947       5.19165261       0.63438275       1.64002248      47.86700000       0.20914107      -0.70855878       0.24672254       0.20914107      -0.70855878       0.24672254 
Ti      -0.20292872      -2.08277232       5.15201718       4.34861257      -1.87798585      -5.65602845      47.86700000       0.99674323      -0.55522740      -2.28950930       0.99674323      -0.55522740      -2.28950930 
Ti       1.08909697       3.19696227       6.66928785      -0.74124246       2.55055053      -5.20875115      47.86700000       0.51970458       1.34247168       1.17084472       0.51970458       1.34247168       1.17084472 
Ti       4.33260560       0.53898453       4.61930732      -0.81217938       0.41776497       1.99869426      47.86700000      -0.07635703      -0.50995949      -0.04766454      -0.07635703      -0.50995949      -0.04766454 
Ti       4.51020004       3.07134038       7.44893094      -7.91641973       5.63167446       2.89287667      47.86700000      -3.76082827       1.30836346      -5.49951042      -3.76082827       1.30836346      -5.49951042 
Ti       0.13195996       2.69904806       4.28572924      -1.92595618      -1.29952293       2.60829044      47.86700000      -0.20672685       0.33883413       0.94822496      -0.20672685       0.33883413       0.94822496 
Ti      -0.10988375       5.89068677       6.87888118      -3.70169878      -3.57867187       2.26332423      47.86700000       7.77418437       0.04401351      -1.15519567       7.77418437       0.04401351      -1.15519567 
Ti       1.31697353      -0.05062214       5.09961433       4.62797307       4.76570799      -0.65738681      47.86700000       1.02095136       1.27015856      -0.45897796       1.02095136       1.27015856      -0.45897796 
Ti       3.66808485       5.88943772       7.22486232      -0.03248923      -2.63354738       2.85100926      47.86700000     -10.06184472      -1.34240184       0.66465278     -10.06184472      -1.34240184       0.66465278 
