54
Lattice="4.425 -7.66432482349 0.0 4.425 7.66432482349 0.0 0.0 0.0 14.4519894824" Properties=species:S:1:pos:R:3:momenta:R:3:masses:R:1 pbc="T T T"
Ti       0.64878454      -3.29102600       2.70107946       2.17569733      -0.26412707      -1.63594767      47.86700000
Ti      -2.77723612      -0.05489104       4.88638701       1.49852853       3.35738555      -4.25265904      47.86700000
Ti       0.62005798      -0.66481996       7.39271965       1.63683327       2.07124788      -3.79317020      47.86700000
Ti       5.95877886       2.80085149       9.03092515       2.70764343       1.63211105       1.76282899      47.86700000
Ti       3.01693073      -0.07612386       9.45771880       2.83946859       7.03638829      -2.88198037      47.86700000
Ti       5.40816216       2.28506352      12.41359423      -2.13670810       0.56303256       4.28004488      47.86700000
Ti       4.12384057       0.36699396      -1.68519405       3.97784976       3.30261228       4.28753021      47.86700000
Ti       3.24248032       5.60729177       4.65303690       0.21481669       0.57323747      -0.93012834      47.86700000
Ti       1.53103009       1.05299045       2.40839672       0.80895867       1.19329081       0.40896221      47.86700000
Ti       1.59983439       4.53656435       7.67316114       6.19436966       1.92464032       1.57723443      47.86700000
Ti       8.41983739       5.28002770       9.63634254       2.88227706      -2.76282707      -3.47898988      47.86700000
Ti       0.30825422       1.60552234       9.89977377       7.05099619      -0.48311118      -0.64104146      47.86700000
Ti      -1.66843785       1.44193200       2.95106906      -0.71378627      -0.01034724      -1.48136308      47.86700000
Ti       5.57113580       5.36681927       5.13727700      -1.44260329      -4.87975329      -1.36921452      47.86700000
Ti       0.45544698       2.67139799       4.75506742       2.23144447      -2.18143674      -6.08425583      47.86700000
Ti       6.73504898       3.31262356       5.69140956      -0.36291808       0.14357308       7.66084155      47.86700000
Ti       3.50372782       2.09974959      10.09811165       2.78404665      -4.00207931       4.99103573      47.86700000
Ti       3.46769110      10.67247880      11.43674673       4.02446901      -1.23470675      -3.61671477      47.86700000
Ti      -2.00436651      -3.58580918      -4.60497247      -1.79943476       2.00118825      -4.05612864      47.86700000
Ti       3.28341241      -3.91565597       2.45652878      -0.41616318      -2.84515733      -3.82861664      47.86700000
Ti       4.09789726       0.73784201       0.99503692       2.29539522      -5.38007598       8.42289689      47.86700000
Ti       3.43411563       3.12844429       4.96558854      -5.55041497      -6.34937772      -1.45041994      47.86700000
Ti       1.25383437      -3.01481176      10.19462454      -0.60271589       3.07690218       0.09624849      47.86700000
Ti      -3.34462179      -2.27059915      12.11245089      -4.31370290      -1.52245620      -3.49675811      47.86700000
Ti       4.78976552      -1.87053553       0.57314670      -2.95960186       6.80363648      -3.62512639      47.86700000
Ti       5.81329494      -0.91121919       2.83619026       0.32100500       0.55237594      -0.54822266      47.86700000
Ti       2.27302083       1.60402041       7.41861357      -1.50304694       4.62790346      -1.14066718      47.86700000
Ti       4.70824375       1.39692527       6.76989907       0.75548668      -5.65751631      -0.12591333      47.86700000
Ti       2.30159438       2.64597050      12.19441628      -1.26921273       0.73659386       0.79795358      47.86700000
Ti       4.57716251       1.63542019      18.13440433      -0.19853365      -3.13468140       4.13140741      47.86700000
Ti       5.93886909       7.48179789      -2.56275729       0.32501950       4.24712477      -0.51637084      47.86700000
Ti      10.88364031       3.91636561       2.62425583       1.59160990       6.13799754      -3.81271251      47.86700000
Ti      -0.05933829      -0.01289234       5.00264907      -7.76211861      -5.43468852       8.23142779      47.86700000
Ti       7.11928485       5.23412011       7.66513534      -1.85376573       2.66694334      -1.78976993      47.86700000
Ti       8.58841804       2.36652317       6.93111231       4.79941412       0.85115346      -2.07790582      47.86700000
Ti       6.67969966       0.88185488      15.14503839       3.55312299      -4.19348533       0.14057946      47.86700000
Ti       4.53069415     -10.33151941      -1.92040614      -4.33855685       1.31620960       1.72504642      47.86700000
Ti       0.41072263      -4.16822493       0.35874912      -4.25641870       5.05822036      -3.23546963      47.86700000
Ti      -4.15825103      -2.20315616       5.08175591      -2.56812486      -4.14702627       5.13662438      47.86700000
Ti       4.86452124      -0.70591541       7.54513039      -2.83811850       0.36227264       2.06542276      47.86700000
Ti       2.85086949      -7.82418726       7.50855369      -5.45773259      -2.63703665      -2.41795007      47.86700000
Ti       7.26459039      -1.63698622      14.48175510       1.59783628       0.32065963       2.63409476      47.86700000
Ti       2.58713333      -2.89136521      -1.28757522      -7.84231183      -3.09033310      -2.57663210      47.86700000
Ti       6.49415712      -4.45869846       0.38651036       4.05857863      -3.67661161      -1.26124050      47.86700000
Ti       2.87967660      -1.55755634       2.88841799       1.31658583      -2.59510727       5.26442753      47.86700000
Ti      -0.91448620      -0.83777861      10.32361395       2.21773558       0.04586947       2.45284342      47.86700000
Ti       5.32319607       0.36329903      10.47468047      -3.13783684       2.27380028      -4.01469183      47.86700000
Ti       7.23880484       0.24105020      12.46178879      -0.29690991      -1.49158130      -1.79389858      47.86700000
Ti       8.36992402      -2.90880492      -6.82924206      -3.97107736       1.58127127      -5.61216749      47.86700000
Ti      10.16260501      -1.41921088       0.24261064      -2.99882480      -1.16097836       1.41325049      47.86700000
Ti       2.67062617       0.08286671       5.43897532      -1.60848372      -2.32834338       8.17423604      47.86700000
Ti      -0.08348049      -0.78727822       2.71750954       0.18025052       0.54829516       5.37887997      47.86700000
Ti       9.66726073       0.81177019      13.73910887       6.46432471       5.22359700      -4.03587012      47.86700000
Ti       8.46714103       2.76346328      14.16884278       1.69535865       1.23331140       0.54818006      47.86700000
